LAMMPS (15 Sep 2022)
KOKKOS mode is enabled (src/KOKKOS/kokkos.cpp:106)
  will use up to 1 GPU(s) per node
package kokkos
package kokkos newton on neigh half
units metal
newton on
boundary p p m
atom_style atomic

# Graphene lattice
lattice custom 2.419         a1    0                 1.0     0             a2    $(sqrt(3)/2)      0.5     0             a3    $(1/(2*sqrt(3)))  0.5     0.83          basis 0                 0       0             basis $(1/3)            $(1/3)  0.0
lattice custom 2.419         a1    0                 1.0     0             a2    0.86602540378443859659      0.5     0             a3    $(1/(2*sqrt(3)))  0.5     0.83          basis 0                 0       0             basis $(1/3)            $(1/3)  0.0
lattice custom 2.419         a1    0                 1.0     0             a2    0.86602540378443859659      0.5     0             a3    0.28867513459481292104  0.5     0.83          basis 0                 0       0             basis $(1/3)            $(1/3)  0.0
lattice custom 2.419         a1    0                 1.0     0             a2    0.86602540378443859659      0.5     0             a3    0.28867513459481292104  0.5     0.83          basis 0                 0       0             basis 0.33333333333333331483            $(1/3)  0.0
lattice custom 2.419         a1    0                 1.0     0             a2    0.86602540378443859659      0.5     0             a3    0.28867513459481292104  0.5     0.83          basis 0                 0       0             basis 0.33333333333333331483            0.33333333333333331483  0.0
Lattice spacing in x,y,z = 2.7932206 4.838 2.00777

# Simulation box & atoms
region simreg block 5 15 5 15 0 0.5
region boxreg block 0 20 0 20 -5 5
create_box 1 boxreg
Created orthogonal box = (0 0 -10.03885) to (55.864412 96.76 10.03885)
create_atoms 1 region simreg basis 1 1
Created 554 atoms

# Pull part of the sheet
region PB_region block INF INF 65.0 INF INF 1 units box # Pull block
group PB region PB_region
95 atoms in group PB
group integrate subtract all PB
459 atoms in group integrate
fix move_PB PB move linear 0 2 0 units box

# Dynamics
mass 1 12.0107

velocity integrate create 1.0 5432373 dist gaussian
pair_style tersoff
pair_coeff * * C.tersoff C

timestep 0.001
fix nve integrate nve

# Output
thermo 1000
dump 1 all custom 100 dump_reproduce.data id type x y z vx vy vz
run 25000
Step          Temp          E_pair         E_mol          TotEng         Press          Volume
0   0.82820976    -3818.7281      0             -3818.6689      15661.267      108528.81
Averages over the last 13 of 26 rows, steps 13000 to 25000:
Temp E_pair E_mol TotEng Press Volume
191356 -3627.93 0 10050.4 1091.46 7.49879e+07
Loop time of 324.079 on 1 procs for 25000 steps with 554 atoms
