LAMMPS (3 Nov 2022)
units 		real
atom_style      charge

lattice 	bcc 2.87
Lattice spacing in x,y,z = 2.87 2.87 2.87
region		bulto block -5 5 -5 5 -5 5
create_box      1 bulto
Created orthogonal box = (-14.35 -14.35 -14.35) to (14.35 14.35 14.35)
create_atoms	1 region bulto
Created 2000 atoms

mass * 55.845
# Choose potential
pair_style      reax/c NULL checkqeq no
pair_coeff      * * CHOFeAlNiCuSCr_v3.ff Fe

#JR: Charge minimization
#fix             qeq all qeq/reax 1 0.0 10.0 1.0e-6 reax/c

neighbor   3.5 bin
neigh_modify    every 2 delay 4 check yes page 100000

velocity        all create 300.0 4928459 rot yes dist gaussian

compute         msd all msd

compute         Stress all stress/atom NULL virial
compute         pe all pe/atom
compute         ke all ke/atom

timestep        1
#fix nve      all nve
fix 		npt all nph iso 0 0 1000
#fix          press  all press/berendsen iso 0 0 1000

thermo          100
thermo_style custom step temp pe ke etotal vol press c_msd[4]
dump  mydump all custom 1000 dump.coordenadas id type q x y z vx vy vz c_pe c_ke c_Stress[1] c_Stress[2] c_Stress[3]

fix 		1 all langevin  300 1500 100 29345 zero yes
run 10000

CITE-CITE-CITE-CITE-CITE-CITE-CITE-CITE-CITE-CITE-CITE-CITE-CITE

Your simulation uses code contributions which should be cited:

- pair reaxff command: doi:10.1016/j.parco.2011.08.005

@Article{Aktulga12,
 author = {H. M. Aktulga and J. C. Fogarty and S. A. Pandit and A. Y. Grama},
 title = {Parallel Reactive Molecular Dynamics: {N}umerical Methods and Algorithmic Techniques},
 journal = {Parallel Computing},
 year =    2012,
 volume =  38,
 number =  {4--5},
 pages =   {245--259}
}

CITE-CITE-CITE-CITE-CITE-CITE-CITE-CITE-CITE-CITE-CITE-CITE-CITE

Step          Temp          PotEng         KinEng         TotEng         Volume         Press         c_msd[4]
0   300           -203952.83      1787.5918     -202165.23      23639.903     -45541.269      0
Averages over the last 51 of 101 rows, steps 5000 to 10000:
Temp PotEng KinEng TotEng Volume Press c_msd[4]
1188.15 -196703 7079.77 -189624 23096.9 43.4793 0.0653394
Loop time of 834.938 on 32 procs for 10000 steps with 2000 atoms

label loop_heating
variable i loop 151 260
variable Temp equal $i*10
variable Temp equal 151*10
fix 		1 all langevin 1510 1510 100 29345 zero yes
run 2000
Step          Temp          PotEng         KinEng         TotEng         Volume         Press         c_msd[4]
10000   1447.1178     -194611.04      8622.8528     -185988.18      23217.071     -4182.2865      0.081372681
Averages over the last 11 of 21 rows, steps 11000 to 12000:
Temp PotEng KinEng TotEng Volume Press c_msd[4]
1487.88 -194586 8865.72 -185720 23157.9 7.04019 0.0791232
Loop time of 172.24 on 32 procs for 2000 steps with 2000 atoms

next i
jump SELF loop_heating
variable i loop 151 260
variable Temp equal $i*10
variable Temp equal 152*10
fix 		1 all langevin 1520 1520 100 29345 zero yes
run 2000
Step          Temp          PotEng         KinEng         TotEng         Volume         Press         c_msd[4]
12000   1459.914      -194848.03      8699.1007     -186148.93      23164.447     -1330.3549      0.07551917
Averages over the last 11 of 21 rows, steps 13000 to 14000:
Temp PotEng KinEng TotEng Volume Press c_msd[4]
1523.37 -194317 9077.24 -185240 23162.1 219.333 0.0814325
Loop time of 171.83 on 32 procs for 2000 steps with 2000 atoms

next i
jump SELF loop_heating
variable i loop 151 260
variable Temp equal $i*10
variable Temp equal 153*10
fix 		1 all langevin 1530 1530 100 29345 zero yes
run 2000
Step          Temp          PotEng         KinEng         TotEng         Volume         Press         c_msd[4]
14000   1509.1747     -194466.58      8992.6279     -185473.95      23134.456      1455.2062      0.07936354
Averages over the last 11 of 21 rows, steps 15000 to 16000:
Temp PotEng KinEng TotEng Volume Press c_msd[4]
1525.11 -194271 9087.59 -185183 23170.5 -337.327 0.0821768
Loop time of 169.864 on 32 procs for 2000 steps with 2000 atoms

next i
jump SELF loop_heating
variable i loop 151 260
variable Temp equal $i*10
variable Temp equal 154*10
fix 		1 all langevin 1540 1540 100 29345 zero yes
run 2000
Step          Temp          PotEng         KinEng         TotEng         Volume         Press         c_msd[4]
16000   1507.312      -194510.25      8981.5284     -185528.72      23168.595     -455.85568      0.078804602
Averages over the last 11 of 21 rows, steps 17000 to 18000:
Temp PotEng KinEng TotEng Volume Press c_msd[4]
1523.77 -194369 9079.59 -185289 23160.7 210.986 0.0830195
Loop time of 172.619 on 32 procs for 2000 steps with 2000 atoms

next i
jump SELF loop_heating
variable i loop 151 260
variable Temp equal $i*10
variable Temp equal 155*10
fix 		1 all langevin 1550 1550 100 29345 zero yes
run 2000
Step          Temp          PotEng         KinEng         TotEng         Volume         Press         c_msd[4]
18000   1512.1113     -194633.44      9010.1258     -185623.31      23116.958      2343.0696      0.081550354
Averages over the last 11 of 21 rows, steps 19000 to 20000:
Temp PotEng KinEng TotEng Volume Press c_msd[4]
1551.57 -194174 9245.27 -184929 23169.7 305.668 0.0828686
Loop time of 171.985 on 32 procs for 2000 steps with 2000 atoms

next i
jump SELF loop_heating
variable i loop 151 260
variable Temp equal $i*10
variable Temp equal 156*10
fix 		1 all langevin 1560 1560 100 29345 zero yes
run 2000
Step          Temp          PotEng         KinEng         TotEng         Volume         Press         c_msd[4]
20000   1589.4767     -194263.76      9471.1182     -184792.64      23155.796      2176.422       0.080256679
Averages over the last 11 of 21 rows, steps 21000 to 22000:
Temp PotEng KinEng TotEng Volume Press c_msd[4]
1558.57 -194213 9286.94 -184926 23168.1 -89.1644 0.0813562
Loop time of 169.607 on 32 procs for 2000 steps with 2000 atoms

next i
jump SELF loop_heating
variable i loop 151 260
variable Temp equal $i*10
variable Temp equal 157*10
fix 		1 all langevin 1570 1570 100 29345 zero yes
run 2000
Step          Temp          PotEng         KinEng         TotEng         Volume         Press         c_msd[4]
22000   1607.0474     -194176.58      9575.8161     -184600.76      23164.601      934.15857      0.082047176
Averages over the last 11 of 21 rows, steps 23000 to 24000:
Temp PotEng KinEng TotEng Volume Press c_msd[4]
1574.11 -194018 9379.57 -184638 23173 1.50602 0.0848368
Loop time of 169.107 on 32 procs for 2000 steps with 2000 atoms

next i
jump SELF loop_heating
variable i loop 151 260
variable Temp equal $i*10
variable Temp equal 158*10
fix 		1 all langevin 1580 1580 100 29345 zero yes
run 2000
Step          Temp          PotEng         KinEng         TotEng         Volume         Press         c_msd[4]
24000   1597.7536     -194143.73      9520.4374     -184623.29      23121.695      3163.9905      0.084590856
Averages over the last 11 of 21 rows, steps 25000 to 26000:
Temp PotEng KinEng TotEng Volume Press c_msd[4]
1570.44 -193971 9357.71 -184613 23181.2 -398.468 0.0841882
Loop time of 172.919 on 32 procs for 2000 steps with 2000 atoms

next i
jump SELF loop_heating
variable i loop 151 260
variable Temp equal $i*10
variable Temp equal 159*10
fix 		1 all langevin 1590 1590 100 29345 zero yes
run 2000
Step          Temp          PotEng         KinEng         TotEng         Volume         Press         c_msd[4]
26000   1544.7568     -193877.92      9204.6484     -184673.28      23238.778     -3937.3858      0.082719453
Averages over the last 11 of 21 rows, steps 27000 to 28000:
Temp PotEng KinEng TotEng Volume Press c_msd[4]
1599.8 -193709 9532.63 -184177 23181.3 -163.512 0.0856359
Loop time of 172.157 on 32 procs for 2000 steps with 2000 atoms

next i
jump SELF loop_heating
variable i loop 151 260
variable Temp equal $i*10
variable Temp equal 160*10
fix 		1 all langevin 1600 1600 100 29345 zero yes
run 2000
Step          Temp          PotEng         KinEng         TotEng         Volume         Press         c_msd[4]
28000   1612.6929     -193567.52      9609.4555     -183958.07      23192.626     -1574.9312      0.087283628
Averages over the last 11 of 21 rows, steps 29000 to 30000:
Temp PotEng KinEng TotEng Volume Press c_msd[4]
1597.7 -193739 9520.1 -184219 23179.6 13.2181 0.0852526
Loop time of 169.143 on 32 procs for 2000 steps with 2000 atoms

next i
jump SELF loop_heating
variable i loop 151 260
variable Temp equal $i*10
variable Temp equal 161*10
fix 		1 all langevin 1610 1610 100 29345 zero yes
run 2000
Step          Temp          PotEng         KinEng         TotEng         Volume         Press         c_msd[4]
30000   1569.8421     -193841.86      9354.1228     -184487.74      23170.762      381.81418      0.088332318
Averages over the last 11 of 21 rows, steps 31000 to 32000:
Temp PotEng KinEng TotEng Volume Press c_msd[4]
1602.1 -193680 9546.35 -184134 23184.9 -109.335 0.0857337
Loop time of 167.676 on 32 procs for 2000 steps with 2000 atoms

next i
jump SELF loop_heating
variable i loop 151 260
variable Temp equal $i*10
variable Temp equal 162*10
fix 		1 all langevin 1620 1620 100 29345 zero yes
run 2000
Step          Temp          PotEng         KinEng         TotEng         Volume         Press         c_msd[4]
32000   1610.8864     -193571.35      9598.6913     -183972.66      23172.183      233.91147      0.086313218
Averages over the last 11 of 21 rows, steps 33000 to 34000:
Temp PotEng KinEng TotEng Volume Press c_msd[4]
1609.88 -193765 9592.68 -184172 23184.6 123.773 0.0843787
Loop time of 169.171 on 32 procs for 2000 steps with 2000 atoms

next i
jump SELF loop_heating
variable i loop 151 260
variable Temp equal $i*10
variable Temp equal 163*10
fix 		1 all langevin 1630 1630 100 29345 zero yes
run 2000
Step          Temp          PotEng         KinEng         TotEng         Volume         Press         c_msd[4]
34000   1592.8039     -193665.9       9490.9441     -184174.95      23199.932     -1051.4943      0.081570283
Averages over the last 11 of 21 rows, steps 35000 to 36000:
Temp PotEng KinEng TotEng Volume Press c_msd[4]
1637.31 -193583 9756.12 -183827 23182.5 162.24 0.0877683
Loop time of 169.658 on 32 procs for 2000 steps with 2000 atoms

next i
jump SELF loop_heating
variable i loop 151 260
variable Temp equal $i*10
variable Temp equal 164*10
fix 		1 all langevin 1640 1640 100 29345 zero yes
run 2000
Step          Temp          PotEng         KinEng         TotEng         Volume         Press         c_msd[4]
36000   1673.5275     -193869.3       9971.9466     -183897.36      23152.059      1899.4297      0.087097824
Averages over the last 11 of 21 rows, steps 37000 to 38000:
Temp PotEng KinEng TotEng Volume Press c_msd[4]
1650.73 -193546 9836.08 -183710 23195.3 -4.17694 0.0864024
Loop time of 169.652 on 32 procs for 2000 steps with 2000 atoms

next i
jump SELF loop_heating
variable i loop 151 260
variable Temp equal $i*10
variable Temp equal 165*10
fix 		1 all langevin 1650 1650 100 29345 zero yes
run 2000
Step          Temp          PotEng         KinEng         TotEng         Volume         Press         c_msd[4]
38000   1608.5543     -193624.79      9584.7949     -184039.99      23226.812     -1967.6285      0.089487363
Averages over the last 11 of 21 rows, steps 39000 to 40000:
Temp PotEng KinEng TotEng Volume Press c_msd[4]
1647.6 -193360 9817.44 -183543 23196.6 -345.648 0.0889466
Loop time of 170.04 on 32 procs for 2000 steps with 2000 atoms

next i
jump SELF loop_heating
variable i loop 151 260
variable Temp equal $i*10
variable Temp equal 166*10
fix 		1 all langevin 1660 1660 100 29345 zero yes
run 2000
Step          Temp          PotEng         KinEng         TotEng         Volume         Press         c_msd[4]
40000   1629.099      -193400.09      9707.2131     -183692.88      23152.784      3369.8212      0.091942299
Averages over the last 11 of 21 rows, steps 41000 to 42000:
Temp PotEng KinEng TotEng Volume Press c_msd[4]
1667.34 -193449 9935.06 -183514 23195.6 -28.3744 0.0876022
Loop time of 167.968 on 32 procs for 2000 steps with 2000 atoms

next i
jump SELF loop_heating
variable i loop 151 260
variable Temp equal $i*10
variable Temp equal 167*10
fix 		1 all langevin 1670 1670 100 29345 zero yes
run 2000
Step          Temp          PotEng         KinEng         TotEng         Volume         Press         c_msd[4]
42000   1683.0288     -193222.4       10028.562     -183193.84      23206.262     -889.04361      0.090224812
Averages over the last 11 of 21 rows, steps 43000 to 44000:
Temp PotEng KinEng TotEng Volume Press c_msd[4]
1680.93 -193294 10016.1 -183278 23201.9 -97.9377 0.0898825
Loop time of 172.694 on 32 procs for 2000 steps with 2000 atoms

next i
jump SELF loop_heating
variable i loop 151 260
variable Temp equal $i*10
variable Temp equal 168*10
fix 		1 all langevin 1680 1680 100 29345 zero yes
run 2000
Step          Temp          PotEng         KinEng         TotEng         Volume         Press         c_msd[4]
44000   1642.3994     -193276.03      9786.4657     -183489.56      23199.84      -230.37414      0.085878783
Averages over the last 11 of 21 rows, steps 45000 to 46000:
Temp PotEng KinEng TotEng Volume Press c_msd[4]
1667.53 -193352 9936.23 -183416 23196.2 158.082 0.0904849
Loop time of 169.976 on 32 procs for 2000 steps with 2000 atoms

next i
jump SELF loop_heating
variable i loop 151 260
variable Temp equal $i*10
variable Temp equal 169*10
fix 		1 all langevin 1690 1690 100 29345 zero yes
run 2000
Step          Temp          PotEng         KinEng         TotEng         Volume         Press         c_msd[4]
46000   1723.1628     -193233.28      10267.706     -182965.58      23127.925      4429.9074      0.092896917
Averages over the last 11 of 21 rows, steps 47000 to 48000:
Temp PotEng KinEng TotEng Volume Press c_msd[4]
1685.68 -193130 10044.4 -183086 23199.7 13.195 0.0901059
Loop time of 170.617 on 32 procs for 2000 steps with 2000 atoms

next i
jump SELF loop_heating
variable i loop 151 260
variable Temp equal $i*10
variable Temp equal 170*10
fix 		1 all langevin 1700 1700 100 29345 zero yes
run 2000
Step          Temp          PotEng         KinEng         TotEng         Volume         Press         c_msd[4]
48000   1681.1649     -192934.61      10017.456     -182917.15      23211.447     -650.4303       0.093321486
Averages over the last 11 of 21 rows, steps 49000 to 50000:
Temp PotEng KinEng TotEng Volume Press c_msd[4]
1693.66 -193113 10091.9 -183021 23204.8 295.215 0.0911024
Loop time of 166.764 on 32 procs for 2000 steps with 2000 atoms

next i
jump SELF loop_heating
variable i loop 151 260
variable Temp equal $i*10
variable Temp equal 171*10
fix 		1 all langevin 1710 1710 100 29345 zero yes
run 2000
Step          Temp          PotEng         KinEng         TotEng         Volume         Press         c_msd[4]
50000   1704.1443     -193226.36      10154.381     -183071.97      23195.183      530.57231      0.085288875
Averages over the last 11 of 21 rows, steps 51000 to 52000:
Temp PotEng KinEng TotEng Volume Press c_msd[4]
1704.04 -193051 10153.7 -182897 23201.9 359.21 0.0898124
Loop time of 170.144 on 32 procs for 2000 steps with 2000 atoms

next i
jump SELF loop_heating
variable i loop 151 260
variable Temp equal $i*10
variable Temp equal 172*10
fix 		1 all langevin 1720 1720 100 29345 zero yes
run 2000
Step          Temp          PotEng         KinEng         TotEng         Volume         Press         c_msd[4]
52000   1709.0474     -193241.55      10183.597     -183057.95      23196.216      1052.0339      0.084838109
Averages over the last 11 of 21 rows, steps 53000 to 54000:
Temp PotEng KinEng TotEng Volume Press c_msd[4]
1710.8 -192969 10194 -182775 23209.5 72.8141 0.0911733
Loop time of 169.479 on 32 procs for 2000 steps with 2000 atoms

next i
jump SELF loop_heating
variable i loop 151 260
variable Temp equal $i*10
variable Temp equal 173*10
fix 		1 all langevin 1730 1730 100 29345 zero yes
run 2000
Step          Temp          PotEng         KinEng         TotEng         Volume         Press         c_msd[4]
54000   1706.4866     -192827.92      10168.338     -182659.58      23166.822      3557.7621      0.09473862
Averages over the last 11 of 21 rows, steps 55000 to 56000:
Temp PotEng KinEng TotEng Volume Press c_msd[4]
1744.15 -192666 10392.8 -182273 23218.7 -194.453 0.0929792
Loop time of 169.295 on 32 procs for 2000 steps with 2000 atoms

next i
jump SELF loop_heating
variable i loop 151 260
variable Temp equal $i*10
variable Temp equal 174*10
fix 		1 all langevin 1740 1740 100 29345 zero yes
run 2000
Step          Temp          PotEng         KinEng         TotEng         Volume         Press         c_msd[4]
56000   1748.6928     -192971.16      10419.829     -182551.33      23207.723      151.13549      0.090700595
Averages over the last 11 of 21 rows, steps 57000 to 58000:
Temp PotEng KinEng TotEng Volume Press c_msd[4]
1741.05 -192821 10374.3 -182446 23210.6 -4.61731 0.0935992
Loop time of 168.69 on 32 procs for 2000 steps with 2000 atoms

next i
jump SELF loop_heating
variable i loop 151 260
variable Temp equal $i*10
variable Temp equal 175*10
fix 		1 all langevin 1750 1750 100 29345 zero yes
run 2000
Step          Temp          PotEng         KinEng         TotEng         Volume         Press         c_msd[4]
58000   1731.3235     -192833.42      10316.332     -182517.09      23250.749     -1985.6313      0.093582029
Averages over the last 11 of 21 rows, steps 59000 to 60000:
Temp PotEng KinEng TotEng Volume Press c_msd[4]
1728.32 -192737 10298.4 -182438 23213.9 -268.121 0.0921505
Loop time of 166.134 on 32 procs for 2000 steps with 2000 atoms

next i
jump SELF loop_heating
variable i loop 151 260
variable Temp equal $i*10
variable Temp equal 176*10
fix 		1 all langevin 1760 1760 100 29345 zero yes
run 2000
Step          Temp          PotEng         KinEng         TotEng         Volume         Press         c_msd[4]
60000   1741.1456     -192601.26      10374.859     -182226.4       23188.491      896.00654      0.09248454
Averages over the last 11 of 21 rows, steps 61000 to 62000:
Temp PotEng KinEng TotEng Volume Press c_msd[4]
1756.9 -192639 10468.7 -182170 23217.5 63.1699 0.0947475
Loop time of 170.281 on 32 procs for 2000 steps with 2000 atoms

next i
jump SELF loop_heating
variable i loop 151 260
variable Temp equal $i*10
variable Temp equal 177*10
fix 		1 all langevin 1770 1770 100 29345 zero yes
run 2000
Step          Temp          PotEng         KinEng         TotEng         Volume         Press         c_msd[4]
62000   1836.0225     -192504.67      10940.196     -181564.48      23213.643      2058.0557      0.095628903
Averages over the last 11 of 21 rows, steps 63000 to 64000:
Temp PotEng KinEng TotEng Volume Press c_msd[4]
1756.31 -192765 10465.2 -182299 23222.7 161.419 0.0932523
Loop time of 168.338 on 32 procs for 2000 steps with 2000 atoms

next i
jump SELF loop_heating
variable i loop 151 260
variable Temp equal $i*10
variable Temp equal 178*10
fix 		1 all langevin 1780 1780 100 29345 zero yes
run 2000
Step          Temp          PotEng         KinEng         TotEng         Volume         Press         c_msd[4]
64000   1753.9012     -192520.87      10450.864     -182070.01      23223.515      359.65982      0.09513311
Averages over the last 11 of 21 rows, steps 65000 to 66000:
Temp PotEng KinEng TotEng Volume Press c_msd[4]
1754.38 -192464 10453.7 -182011 23228.1 -411.544 0.0964363
Loop time of 167.337 on 32 procs for 2000 steps with 2000 atoms

next i
jump SELF loop_heating
variable i loop 151 260
variable Temp equal $i*10
variable Temp equal 179*10
fix 		1 all langevin 1790 1790 100 29345 zero yes
run 2000
Step          Temp          PotEng         KinEng         TotEng         Volume         Press         c_msd[4]
66000   1745.9914     -192540.51      10403.733     -182136.77      23276.914     -3135.7535      0.094790625
Averages over the last 11 of 21 rows, steps 67000 to 68000:
Temp PotEng KinEng TotEng Volume Press c_msd[4]
1814.9 -192378 10814.3 -181563 23229.2 238.087 0.094871
Loop time of 167.169 on 32 procs for 2000 steps with 2000 atoms

next i
jump SELF loop_heating
variable i loop 151 260
variable Temp equal $i*10
variable Temp equal 180*10
fix 		1 all langevin 1800 1800 100 29345 zero yes
run 2000
Step          Temp          PotEng         KinEng         TotEng         Volume         Press         c_msd[4]
68000   1817.2        -192211.4       10828.039     -181383.36      23266.299     -1922.9859      0.09851297
Averages over the last 11 of 21 rows, steps 69000 to 70000:
Temp PotEng KinEng TotEng Volume Press c_msd[4]
1787.19 -192330 10649.2 -181681 23229.1 -192.744 0.0961879
Loop time of 169.571 on 32 procs for 2000 steps with 2000 atoms

next i
jump SELF loop_heating
variable i loop 151 260
variable Temp equal $i*10
variable Temp equal 181*10
fix 		1 all langevin 1810 1810 100 29345 zero yes
run 2000
Step          Temp          PotEng         KinEng         TotEng         Volume         Press         c_msd[4]
70000   1873.6525     -191867.48      11164.419     -180703.06      23261.611     -370.31567      0.099153082
Averages over the last 11 of 21 rows, steps 71000 to 72000:
Temp PotEng KinEng TotEng Volume Press c_msd[4]
1804.6 -192274 10753 -181521 23238.3 -42.5704 0.0958557
Loop time of 170.189 on 32 procs for 2000 steps with 2000 atoms

next i
jump SELF loop_heating
variable i loop 151 260
variable Temp equal $i*10
variable Temp equal 182*10
fix 		1 all langevin 1820 1820 100 29345 zero yes
run 2000
Step          Temp          PotEng         KinEng         TotEng         Volume         Press         c_msd[4]
72000   1788.1529     -191965.58      10654.958     -181310.62      23267.308     -1230.2732      0.098309255
Averages over the last 11 of 21 rows, steps 73000 to 74000:
Temp PotEng KinEng TotEng Volume Press c_msd[4]
1818.87 -192305 10838 -181467 23231 246.812 0.0982244
Loop time of 168.071 on 32 procs for 2000 steps with 2000 atoms

next i
jump SELF loop_heating
variable i loop 151 260
variable Temp equal $i*10
variable Temp equal 183*10
fix 		1 all langevin 1830 1830 100 29345 zero yes
run 2000
Step          Temp          PotEng         KinEng         TotEng         Volume         Press         c_msd[4]
74000   1817.6975     -192200.73      10831.004     -181369.73      23279.721     -1302.2445      0.096491882
Averages over the last 11 of 21 rows, steps 75000 to 76000:
Temp PotEng KinEng TotEng Volume Press c_msd[4]
1831.07 -192171 10910.7 -181260 23237.4 252.851 0.0962895
Loop time of 168.734 on 32 procs for 2000 steps with 2000 atoms

next i
jump SELF loop_heating
variable i loop 151 260
variable Temp equal $i*10
variable Temp equal 184*10
fix 		1 all langevin 1840 1840 100 29345 zero yes
run 2000
Step          Temp          PotEng         KinEng         TotEng         Volume         Press         c_msd[4]
76000   1852.7126     -191833.56      11039.646     -180793.91      23180.323      3578.3805      0.10293298
Averages over the last 11 of 21 rows, steps 77000 to 78000:
Temp PotEng KinEng TotEng Volume Press c_msd[4]
1834.14 -192071 10929 -181142 23243.6 -191.687 0.0992801
Loop time of 176.368 on 32 procs for 2000 steps with 2000 atoms

next i
jump SELF loop_heating
variable i loop 151 260
variable Temp equal $i*10
variable Temp equal 185*10
fix 		1 all langevin 1850 1850 100 29345 zero yes
run 2000
Step          Temp          PotEng         KinEng         TotEng         Volume         Press         c_msd[4]
78000   1801.9502     -192031.39      10737.171     -181294.22      23270.94      -2797.9078      0.097055445
Averages over the last 11 of 21 rows, steps 79000 to 80000:
Temp PotEng KinEng TotEng Volume Press c_msd[4]
1862.19 -191907 11096.1 -180811 23241.6 336.605 0.10164
Loop time of 180.485 on 32 procs for 2000 steps with 2000 atoms

next i
jump SELF loop_heating
variable i loop 151 260
variable Temp equal $i*10
variable Temp equal 186*10
fix 		1 all langevin 1860 1860 100 29345 zero yes
run 2000
Step          Temp          PotEng         KinEng         TotEng         Volume         Press         c_msd[4]
80000   1878.3706     -191503.4       11192.533     -180310.87      23240.071     -363.55023      0.11044744
Averages over the last 11 of 21 rows, steps 81000 to 82000:
Temp PotEng KinEng TotEng Volume Press c_msd[4]
1848.01 -191985 11011.6 -180973 23240.9 6.23728 0.101184
Loop time of 180.755 on 32 procs for 2000 steps with 2000 atoms

next i
jump SELF loop_heating
variable i loop 151 260
variable Temp equal $i*10
variable Temp equal 187*10
fix 		1 all langevin 1870 1870 100 29345 zero yes
run 2000
Step          Temp          PotEng         KinEng         TotEng         Volume         Press         c_msd[4]
82000   1870.5082     -191708.94      11145.684     -180563.25      23192.736      3136.6064      0.10488546
Averages over the last 11 of 21 rows, steps 83000 to 84000:
Temp PotEng KinEng TotEng Volume Press c_msd[4]
1864.59 -191894 11110.4 -180784 23242.9 -141.115 0.100445
Loop time of 180.45 on 32 procs for 2000 steps with 2000 atoms

next i
jump SELF loop_heating
variable i loop 151 260
variable Temp equal $i*10
variable Temp equal 188*10
fix 		1 all langevin 1880 1880 100 29345 zero yes
run 2000
Step          Temp          PotEng         KinEng         TotEng         Volume         Press         c_msd[4]
84000   1805.7664     -192212.76      10759.91      -181452.85      23171.934      3078.7487      0.10012344
Averages over the last 11 of 21 rows, steps 85000 to 86000:
Temp PotEng KinEng TotEng Volume Press c_msd[4]
1897.86 -191740 11308.7 -180432 23254.5 319.024 0.103026
Loop time of 167.046 on 32 procs for 2000 steps with 2000 atoms

next i
jump SELF loop_heating
variable i loop 151 260
variable Temp equal $i*10
variable Temp equal 189*10
fix 		1 all langevin 1890 1890 100 29345 zero yes
run 2000
Step          Temp          PotEng         KinEng         TotEng         Volume         Press         c_msd[4]
86000   1861.5091     -191843.38      11092.061     -180751.32      23235.611      1151.5961      0.10338381
Averages over the last 11 of 21 rows, steps 87000 to 88000:
Temp PotEng KinEng TotEng Volume Press c_msd[4]
1886.92 -191792 11243.5 -180549 23254.2 -59.863 0.101255
Loop time of 164.863 on 32 procs for 2000 steps with 2000 atoms

next i
jump SELF loop_heating
variable i loop 151 260
variable Temp equal $i*10
variable Temp equal 190*10
fix 		1 all langevin 1900 1900 100 29345 zero yes
run 2000
Loop time of 164.909 on 32 procs for 2000 steps with 2000 atoms

next i
jump SELF loop_heating
variable i loop 151 260
variable Temp equal $i*10
variable Temp equal 191*10
fix 		1 all langevin 1910 1910 100 29345 zero yes
run 2000
Loop time of 169.647 on 32 procs for 2000 steps with 2000 atoms

next i
jump SELF loop_heating
variable i loop 151 260
variable Temp equal $i*10
variable Temp equal 192*10
fix 		1 all langevin 1920 1920 100 29345 zero yes
run 2000
Loop time of 173.279 on 32 procs for 2000 steps with 2000 atoms

next i
jump SELF loop_heating
variable i loop 151 260
variable Temp equal $i*10
variable Temp equal 193*10
fix 		1 all langevin 1930 1930 100 29345 zero yes
run 2000
Loop time of 172.221 on 32 procs for 2000 steps with 2000 atoms

next i
jump SELF loop_heating
variable i loop 151 260
variable Temp equal $i*10
variable Temp equal 194*10
fix 		1 all langevin 1940 1940 100 29345 zero yes
run 2000
Loop time of 169.602 on 32 procs for 2000 steps with 2000 atoms

next i
jump SELF loop_heating
variable i loop 151 260
variable Temp equal $i*10
variable Temp equal 195*10
fix 		1 all langevin 1950 1950 100 29345 zero yes
run 2000
Loop time of 169.896 on 32 procs for 2000 steps with 2000 atoms

next i
jump SELF loop_heating
variable i loop 151 260
variable Temp equal $i*10
variable Temp equal 196*10
fix 		1 all langevin 1960 1960 100 29345 zero yes
run 2000
Loop time of 171.853 on 32 procs for 2000 steps with 2000 atoms

next i
jump SELF loop_heating
variable i loop 151 260
variable Temp equal $i*10
variable Temp equal 197*10
fix 		1 all langevin 1970 1970 100 29345 zero yes
run 2000
Loop time of 171.948 on 32 procs for 2000 steps with 2000 atoms

next i
jump SELF loop_heating
variable i loop 151 260
variable Temp equal $i*10
variable Temp equal 198*10
fix 		1 all langevin 1980 1980 100 29345 zero yes
run 2000
Loop time of 169.214 on 32 procs for 2000 steps with 2000 atoms

next i
jump SELF loop_heating
variable i loop 151 260
variable Temp equal $i*10
variable Temp equal 199*10
fix 		1 all langevin 1990 1990 100 29345 zero yes
run 2000
Loop time of 165.749 on 32 procs for 2000 steps with 2000 atoms

next i
jump SELF loop_heating
variable i loop 151 260
variable Temp equal $i*10
variable Temp equal 200*10
fix 		1 all langevin 2000 2000 100 29345 zero yes
run 2000
Loop time of 165.707 on 32 procs for 2000 steps with 2000 atoms

next i
jump SELF loop_heating
variable i loop 151 260
variable Temp equal $i*10
variable Temp equal 201*10
fix 		1 all langevin 2010 2010 100 29345 zero yes
run 2000
Loop time of 165.568 on 32 procs for 2000 steps with 2000 atoms

next i
jump SELF loop_heating
variable i loop 151 260
variable Temp equal $i*10
variable Temp equal 202*10
fix 		1 all langevin 2020 2020 100 29345 zero yes
run 2000
Loop time of 165.708 on 32 procs for 2000 steps with 2000 atoms

next i
jump SELF loop_heating
variable i loop 151 260
variable Temp equal $i*10
variable Temp equal 203*10
fix 		1 all langevin 2030 2030 100 29345 zero yes
run 2000
Loop time of 165.596 on 32 procs for 2000 steps with 2000 atoms

next i
jump SELF loop_heating
variable i loop 151 260
variable Temp equal $i*10
variable Temp equal 204*10
fix 		1 all langevin 2040 2040 100 29345 zero yes
run 2000
Loop time of 166.204 on 32 procs for 2000 steps with 2000 atoms

next i
jump SELF loop_heating
variable i loop 151 260
variable Temp equal $i*10
variable Temp equal 205*10
fix 		1 all langevin 2050 2050 100 29345 zero yes
run 2000
Loop time of 165.839 on 32 procs for 2000 steps with 2000 atoms

next i
jump SELF loop_heating
variable i loop 151 260
variable Temp equal $i*10
variable Temp equal 206*10
fix 		1 all langevin 2060 2060 100 29345 zero yes
run 2000
Loop time of 165.77 on 32 procs for 2000 steps with 2000 atoms

next i
jump SELF loop_heating
variable i loop 151 260
variable Temp equal $i*10
variable Temp equal 207*10
fix 		1 all langevin 2070 2070 100 29345 zero yes
run 2000
Loop time of 166.325 on 32 procs for 2000 steps with 2000 atoms

next i
jump SELF loop_heating
variable i loop 151 260
variable Temp equal $i*10
variable Temp equal 208*10
fix 		1 all langevin 2080 2080 100 29345 zero yes
run 2000
Loop time of 166.17 on 32 procs for 2000 steps with 2000 atoms

next i
jump SELF loop_heating
variable i loop 151 260
variable Temp equal $i*10
variable Temp equal 209*10
fix 		1 all langevin 2090 2090 100 29345 zero yes
run 2000
Loop time of 166.01 on 32 procs for 2000 steps with 2000 atoms

next i
jump SELF loop_heating
variable i loop 151 260
variable Temp equal $i*10
variable Temp equal 210*10
fix 		1 all langevin 2100 2100 100 29345 zero yes
run 2000
Loop time of 165.77 on 32 procs for 2000 steps with 2000 atoms

next i
jump SELF loop_heating
variable i loop 151 260
variable Temp equal $i*10
variable Temp equal 211*10
fix 		1 all langevin 2110 2110 100 29345 zero yes
run 2000
Loop time of 166.021 on 32 procs for 2000 steps with 2000 atoms

next i
jump SELF loop_heating
variable i loop 151 260
variable Temp equal $i*10
variable Temp equal 212*10
fix 		1 all langevin 2120 2120 100 29345 zero yes
run 2000
Loop time of 166.088 on 32 procs for 2000 steps with 2000 atoms

next i
jump SELF loop_heating
variable i loop 151 260
variable Temp equal $i*10
variable Temp equal 213*10
fix 		1 all langevin 2130 2130 100 29345 zero yes
run 2000
Loop time of 165.759 on 32 procs for 2000 steps with 2000 atoms

next i
jump SELF loop_heating
variable i loop 151 260
variable Temp equal $i*10
variable Temp equal 214*10
fix 		1 all langevin 2140 2140 100 29345 zero yes
run 2000
Loop time of 165.934 on 32 procs for 2000 steps with 2000 atoms

next i
jump SELF loop_heating
variable i loop 151 260
variable Temp equal $i*10
variable Temp equal 215*10
fix 		1 all langevin 2150 2150 100 29345 zero yes
run 2000
Loop time of 165.748 on 32 procs for 2000 steps with 2000 atoms

next i
jump SELF loop_heating
variable i loop 151 260
variable Temp equal $i*10
variable Temp equal 216*10
fix 		1 all langevin 2160 2160 100 29345 zero yes
run 2000
Loop time of 165.797 on 32 procs for 2000 steps with 2000 atoms

next i
jump SELF loop_heating
variable i loop 151 260
variable Temp equal $i*10
variable Temp equal 217*10
fix 		1 all langevin 2170 2170 100 29345 zero yes
run 2000
Loop time of 166.228 on 32 procs for 2000 steps with 2000 atoms

next i
jump SELF loop_heating
variable i loop 151 260
variable Temp equal $i*10
variable Temp equal 218*10
fix 		1 all langevin 2180 2180 100 29345 zero yes
run 2000
Loop time of 166.047 on 32 procs for 2000 steps with 2000 atoms

next i
jump SELF loop_heating
variable i loop 151 260
variable Temp equal $i*10
variable Temp equal 219*10
fix 		1 all langevin 2190 2190 100 29345 zero yes
run 2000
Loop time of 166.056 on 32 procs for 2000 steps with 2000 atoms

next i
jump SELF loop_heating
variable i loop 151 260
variable Temp equal $i*10
variable Temp equal 220*10
fix 		1 all langevin 2200 2200 100 29345 zero yes
run 2000
Loop time of 165.949 on 32 procs for 2000 steps with 2000 atoms

next i
jump SELF loop_heating
variable i loop 151 260
variable Temp equal $i*10
variable Temp equal 221*10
fix 		1 all langevin 2210 2210 100 29345 zero yes
run 2000
Loop time of 165.896 on 32 procs for 2000 steps with 2000 atoms

next i
jump SELF loop_heating
variable i loop 151 260
variable Temp equal $i*10
variable Temp equal 222*10
fix 		1 all langevin 2220 2220 100 29345 zero yes
run 2000
Loop time of 166.41 on 32 procs for 2000 steps with 2000 atoms

next i
jump SELF loop_heating
variable i loop 151 260
variable Temp equal $i*10
variable Temp equal 223*10
fix 		1 all langevin 2230 2230 100 29345 zero yes
run 2000
Loop time of 165.987 on 32 procs for 2000 steps with 2000 atoms

next i
jump SELF loop_heating
variable i loop 151 260
variable Temp equal $i*10
variable Temp equal 224*10
fix 		1 all langevin 2240 2240 100 29345 zero yes
run 2000
Loop time of 166.167 on 32 procs for 2000 steps with 2000 atoms

next i
jump SELF loop_heating
variable i loop 151 260
variable Temp equal $i*10
variable Temp equal 225*10
fix 		1 all langevin 2250 2250 100 29345 zero yes
run 2000
Loop time of 169.337 on 32 procs for 2000 steps with 2000 atoms

next i
jump SELF loop_heating
variable i loop 151 260
variable Temp equal $i*10
variable Temp equal 226*10
fix 		1 all langevin 2260 2260 100 29345 zero yes
run 2000
Loop time of 172.201 on 32 procs for 2000 steps with 2000 atoms

next i
jump SELF loop_heating
variable i loop 151 260
variable Temp equal $i*10
variable Temp equal 227*10
fix 		1 all langevin 2270 2270 100 29345 zero yes
run 2000
Loop time of 170.24 on 32 procs for 2000 steps with 2000 atoms

next i
jump SELF loop_heating
variable i loop 151 260
variable Temp equal $i*10
variable Temp equal 228*10
fix 		1 all langevin 2280 2280 100 29345 zero yes
run 2000
Loop time of 169.679 on 32 procs for 2000 steps with 2000 atoms

next i
jump SELF loop_heating
variable i loop 151 260
variable Temp equal $i*10
variable Temp equal 229*10
fix 		1 all langevin 2290 2290 100 29345 zero yes
run 2000
Loop time of 169.862 on 32 procs for 2000 steps with 2000 atoms

next i
jump SELF loop_heating
variable i loop 151 260
variable Temp equal $i*10
variable Temp equal 230*10
fix 		1 all langevin 2300 2300 100 29345 zero yes
run 2000
Loop time of 169.13 on 32 procs for 2000 steps with 2000 atoms

next i
jump SELF loop_heating
variable i loop 151 260
variable Temp equal $i*10
variable Temp equal 231*10
fix 		1 all langevin 2310 2310 100 29345 zero yes
run 2000
Loop time of 168.946 on 32 procs for 2000 steps with 2000 atoms

next i
jump SELF loop_heating
variable i loop 151 260
variable Temp equal $i*10
variable Temp equal 232*10
fix 		1 all langevin 2320 2320 100 29345 zero yes
run 2000
Loop time of 169.154 on 32 procs for 2000 steps with 2000 atoms

next i
jump SELF loop_heating
variable i loop 151 260
variable Temp equal $i*10
variable Temp equal 233*10
fix 		1 all langevin 2330 2330 100 29345 zero yes
run 2000
Loop time of 169.038 on 32 procs for 2000 steps with 2000 atoms

next i
jump SELF loop_heating
variable i loop 151 260
variable Temp equal $i*10
variable Temp equal 234*10
fix 		1 all langevin 2340 2340 100 29345 zero yes
run 2000
Loop time of 169.092 on 32 procs for 2000 steps with 2000 atoms

next i
jump SELF loop_heating
variable i loop 151 260
variable Temp equal $i*10
variable Temp equal 235*10
fix 		1 all langevin 2350 2350 100 29345 zero yes
run 2000
Loop time of 169.324 on 32 procs for 2000 steps with 2000 atoms

next i
jump SELF loop_heating
variable i loop 151 260
variable Temp equal $i*10
variable Temp equal 236*10
fix 		1 all langevin 2360 2360 100 29345 zero yes
run 2000
Loop time of 169.412 on 32 procs for 2000 steps with 2000 atoms

next i
jump SELF loop_heating
variable i loop 151 260
variable Temp equal $i*10
variable Temp equal 237*10
fix 		1 all langevin 2370 2370 100 29345 zero yes
run 2000
Loop time of 169.598 on 32 procs for 2000 steps with 2000 atoms

next i
jump SELF loop_heating
variable i loop 151 260
variable Temp equal $i*10
variable Temp equal 238*10
fix 		1 all langevin 2380 2380 100 29345 zero yes
run 2000
Loop time of 169.268 on 32 procs for 2000 steps with 2000 atoms

next i
jump SELF loop_heating
variable i loop 151 260
variable Temp equal $i*10
variable Temp equal 239*10
fix 		1 all langevin 2390 2390 100 29345 zero yes
run 2000
Loop time of 169.262 on 32 procs for 2000 steps with 2000 atoms

next i
jump SELF loop_heating
variable i loop 151 260
variable Temp equal $i*10
variable Temp equal 240*10
fix 		1 all langevin 2400 2400 100 29345 zero yes
run 2000
Loop time of 169.108 on 32 procs for 2000 steps with 2000 atoms

next i
jump SELF loop_heating
variable i loop 151 260
variable Temp equal $i*10
variable Temp equal 241*10
fix 		1 all langevin 2410 2410 100 29345 zero yes
run 2000
Loop time of 169.372 on 32 procs for 2000 steps with 2000 atoms

next i
jump SELF loop_heating
variable i loop 151 260
variable Temp equal $i*10
variable Temp equal 242*10
fix 		1 all langevin 2420 2420 100 29345 zero yes
run 2000
Loop time of 169.307 on 32 procs for 2000 steps with 2000 atoms

next i
jump SELF loop_heating
variable i loop 151 260
variable Temp equal $i*10
variable Temp equal 243*10
fix 		1 all langevin 2430 2430 100 29345 zero yes
run 2000
Loop time of 169.338 on 32 procs for 2000 steps with 2000 atoms

next i
jump SELF loop_heating
variable i loop 151 260
variable Temp equal $i*10
variable Temp equal 244*10
fix 		1 all langevin 2440 2440 100 29345 zero yes
run 2000
Loop time of 169.114 on 32 procs for 2000 steps with 2000 atoms

next i
jump SELF loop_heating
variable i loop 151 260
variable Temp equal $i*10
variable Temp equal 245*10
fix 		1 all langevin 2450 2450 100 29345 zero yes
run 2000
Loop time of 169.26 on 32 procs for 2000 steps with 2000 atoms

next i
jump SELF loop_heating
variable i loop 151 260
variable Temp equal $i*10
variable Temp equal 246*10
fix 		1 all langevin 2460 2460 100 29345 zero yes
run 2000
Loop time of 169.448 on 32 procs for 2000 steps with 2000 atoms

next i
jump SELF loop_heating
variable i loop 151 260
variable Temp equal $i*10
variable Temp equal 247*10
fix 		1 all langevin 2470 2470 100 29345 zero yes
run 2000
Loop time of 169.829 on 32 procs for 2000 steps with 2000 atoms

next i
jump SELF loop_heating
variable i loop 151 260
variable Temp equal $i*10
variable Temp equal 248*10
fix 		1 all langevin 2480 2480 100 29345 zero yes
run 2000
Loop time of 169.594 on 32 procs for 2000 steps with 2000 atoms

next i
jump SELF loop_heating
variable i loop 151 260
variable Temp equal $i*10
variable Temp equal 249*10
fix 		1 all langevin 2490 2490 100 29345 zero yes
run 2000
Loop time of 169.065 on 32 procs for 2000 steps with 2000 atoms

next i
jump SELF loop_heating
variable i loop 151 260
variable Temp equal $i*10
variable Temp equal 250*10
fix 		1 all langevin 2500 2500 100 29345 zero yes
run 2000
Loop time of 169.881 on 32 procs for 2000 steps with 2000 atoms

next i
jump SELF loop_heating
variable i loop 151 260
variable Temp equal $i*10
variable Temp equal 251*10
fix 		1 all langevin 2510 2510 100 29345 zero yes
run 2000
Loop time of 169.5 on 32 procs for 2000 steps with 2000 atoms

next i
jump SELF loop_heating
variable i loop 151 260
variable Temp equal $i*10
variable Temp equal 252*10
fix 		1 all langevin 2520 2520 100 29345 zero yes
run 2000
Loop time of 169.533 on 32 procs for 2000 steps with 2000 atoms

next i
jump SELF loop_heating
variable i loop 151 260
variable Temp equal $i*10
variable Temp equal 253*10
fix 		1 all langevin 2530 2530 100 29345 zero yes
run 2000
Loop time of 169.529 on 32 procs for 2000 steps with 2000 atoms

next i
jump SELF loop_heating
variable i loop 151 260
variable Temp equal $i*10
variable Temp equal 254*10
fix 		1 all langevin 2540 2540 100 29345 zero yes
run 2000
Loop time of 169.543 on 32 procs for 2000 steps with 2000 atoms

next i
jump SELF loop_heating
variable i loop 151 260
variable Temp equal $i*10
variable Temp equal 255*10
fix 		1 all langevin 2550 2550 100 29345 zero yes
run 2000
Loop time of 169.298 on 32 procs for 2000 steps with 2000 atoms

next i
jump SELF loop_heating
variable i loop 151 260
variable Temp equal $i*10
variable Temp equal 256*10
fix 		1 all langevin 2560 2560 100 29345 zero yes
run 2000
Loop time of 169.905 on 32 procs for 2000 steps with 2000 atoms

next i
jump SELF loop_heating
variable i loop 151 260
variable Temp equal $i*10
variable Temp equal 257*10
fix 		1 all langevin 2570 2570 100 29345 zero yes
run 2000
Loop time of 169.423 on 32 procs for 2000 steps with 2000 atoms

next i
jump SELF loop_heating
variable i loop 151 260
variable Temp equal $i*10
variable Temp equal 258*10
fix 		1 all langevin 2580 2580 100 29345 zero yes
run 2000
Loop time of 170.28 on 32 procs for 2000 steps with 2000 atoms

next i
jump SELF loop_heating
variable i loop 151 260
variable Temp equal $i*10
variable Temp equal 259*10
fix 		1 all langevin 2590 2590 100 29345 zero yes
run 2000
Loop time of 169.886 on 32 procs for 2000 steps with 2000 atoms

next i
jump SELF loop_heating
variable i loop 151 260
variable Temp equal $i*10
variable Temp equal 260*10
fix 		1 all langevin 2600 2600 100 29345 zero yes
run 2000
Loop time of 169.643 on 32 procs for 2000 steps with 2000 atoms

next i
jump SELF loop_heating

label loop_cooling
variable i loop 1 200
variable Temp equal (260-$i)*10
variable Temp equal (260-1)*10
fix 		1 all langevin 2590 2590 100 29345 zero yes
run 2000
Loop time of 169.702 on 32 procs for 2000 steps with 2000 atoms

next i
jump SELF loop_cooling
variable i loop 1 200
variable Temp equal (260-$i)*10
variable Temp equal (260-2)*10
fix 		1 all langevin 2580 2580 100 29345 zero yes
run 2000
Loop time of 169.758 on 32 procs for 2000 steps with 2000 atoms

next i
jump SELF loop_cooling
variable i loop 1 200
variable Temp equal (260-$i)*10
variable Temp equal (260-3)*10
fix 		1 all langevin 2570 2570 100 29345 zero yes
run 2000
Loop time of 169.911 on 32 procs for 2000 steps with 2000 atoms

next i
jump SELF loop_cooling
variable i loop 1 200
variable Temp equal (260-$i)*10
variable Temp equal (260-4)*10
fix 		1 all langevin 2560 2560 100 29345 zero yes
run 2000
Loop time of 169.995 on 32 procs for 2000 steps with 2000 atoms

next i
jump SELF loop_cooling
variable i loop 1 200
variable Temp equal (260-$i)*10
variable Temp equal (260-5)*10
fix 		1 all langevin 2550 2550 100 29345 zero yes
run 2000
Loop time of 169.477 on 32 procs for 2000 steps with 2000 atoms

next i
jump SELF loop_cooling
variable i loop 1 200
variable Temp equal (260-$i)*10
variable Temp equal (260-6)*10
fix 		1 all langevin 2540 2540 100 29345 zero yes
run 2000
Loop time of 170.402 on 32 procs for 2000 steps with 2000 atoms

next i
jump SELF loop_cooling
variable i loop 1 200
variable Temp equal (260-$i)*10
variable Temp equal (260-7)*10
fix 		1 all langevin 2530 2530 100 29345 zero yes
run 2000
Loop time of 169.599 on 32 procs for 2000 steps with 2000 atoms

next i
jump SELF loop_cooling
variable i loop 1 200
variable Temp equal (260-$i)*10
variable Temp equal (260-8)*10
fix 		1 all langevin 2520 2520 100 29345 zero yes
run 2000
Loop time of 169.468 on 32 procs for 2000 steps with 2000 atoms

next i
jump SELF loop_cooling
variable i loop 1 200
variable Temp equal (260-$i)*10
variable Temp equal (260-9)*10
fix 		1 all langevin 2510 2510 100 29345 zero yes
run 2000
Loop time of 169.504 on 32 procs for 2000 steps with 2000 atoms

next i
jump SELF loop_cooling
variable i loop 1 200
variable Temp equal (260-$i)*10
variable Temp equal (260-10)*10
fix 		1 all langevin 2500 2500 100 29345 zero yes
run 2000
Loop time of 169.631 on 32 procs for 2000 steps with 2000 atoms

next i
jump SELF loop_cooling
variable i loop 1 200
variable Temp equal (260-$i)*10
variable Temp equal (260-11)*10
fix 		1 all langevin 2490 2490 100 29345 zero yes
run 2000
Loop time of 169.456 on 32 procs for 2000 steps with 2000 atoms

next i
jump SELF loop_cooling
variable i loop 1 200
variable Temp equal (260-$i)*10
variable Temp equal (260-12)*10
fix 		1 all langevin 2480 2480 100 29345 zero yes
run 2000
Loop time of 169.239 on 32 procs for 2000 steps with 2000 atoms

next i
jump SELF loop_cooling
variable i loop 1 200
variable Temp equal (260-$i)*10
variable Temp equal (260-13)*10
fix 		1 all langevin 2470 2470 100 29345 zero yes
run 2000
Loop time of 169.258 on 32 procs for 2000 steps with 2000 atoms

next i
jump SELF loop_cooling
variable i loop 1 200
variable Temp equal (260-$i)*10
variable Temp equal (260-14)*10
fix 		1 all langevin 2460 2460 100 29345 zero yes
run 2000
Loop time of 169.464 on 32 procs for 2000 steps with 2000 atoms

next i
jump SELF loop_cooling
variable i loop 1 200
variable Temp equal (260-$i)*10
variable Temp equal (260-15)*10
fix 		1 all langevin 2450 2450 100 29345 zero yes
run 2000
Loop time of 169.39 on 32 procs for 2000 steps with 2000 atoms

next i
jump SELF loop_cooling
variable i loop 1 200
variable Temp equal (260-$i)*10
variable Temp equal (260-16)*10
fix 		1 all langevin 2440 2440 100 29345 zero yes
run 2000
Loop time of 168.453 on 32 procs for 2000 steps with 2000 atoms

next i
jump SELF loop_cooling
variable i loop 1 200
variable Temp equal (260-$i)*10
variable Temp equal (260-17)*10
fix 		1 all langevin 2430 2430 100 29345 zero yes
run 2000
Loop time of 167.353 on 32 procs for 2000 steps with 2000 atoms

next i
jump SELF loop_cooling
variable i loop 1 200
variable Temp equal (260-$i)*10
variable Temp equal (260-18)*10
fix 		1 all langevin 2420 2420 100 29345 zero yes
run 2000
Loop time of 167.501 on 32 procs for 2000 steps with 2000 atoms

next i
jump SELF loop_cooling
variable i loop 1 200
variable Temp equal (260-$i)*10
variable Temp equal (260-19)*10
fix 		1 all langevin 2410 2410 100 29345 zero yes
run 2000
Loop time of 167.256 on 32 procs for 2000 steps with 2000 atoms

next i
jump SELF loop_cooling
variable i loop 1 200
variable Temp equal (260-$i)*10
variable Temp equal (260-20)*10
fix 		1 all langevin 2400 2400 100 29345 zero yes
run 2000
Loop time of 167.154 on 32 procs for 2000 steps with 2000 atoms

next i
jump SELF loop_cooling
variable i loop 1 200
variable Temp equal (260-$i)*10
variable Temp equal (260-21)*10
fix 		1 all langevin 2390 2390 100 29345 zero yes
run 2000
Loop time of 167.3 on 32 procs for 2000 steps with 2000 atoms

next i
jump SELF loop_cooling
variable i loop 1 200
variable Temp equal (260-$i)*10
variable Temp equal (260-22)*10
fix 		1 all langevin 2380 2380 100 29345 zero yes
run 2000
Loop time of 167.223 on 32 procs for 2000 steps with 2000 atoms

next i
jump SELF loop_cooling
variable i loop 1 200
variable Temp equal (260-$i)*10
variable Temp equal (260-23)*10
fix 		1 all langevin 2370 2370 100 29345 zero yes
run 2000
Loop time of 167.277 on 32 procs for 2000 steps with 2000 atoms

next i
jump SELF loop_cooling
variable i loop 1 200
variable Temp equal (260-$i)*10
variable Temp equal (260-24)*10
fix 		1 all langevin 2360 2360 100 29345 zero yes
run 2000
Loop time of 167.253 on 32 procs for 2000 steps with 2000 atoms

next i
jump SELF loop_cooling
variable i loop 1 200
variable Temp equal (260-$i)*10
variable Temp equal (260-25)*10
fix 		1 all langevin 2350 2350 100 29345 zero yes
run 2000
Loop time of 167.013 on 32 procs for 2000 steps with 2000 atoms

next i
jump SELF loop_cooling
variable i loop 1 200
variable Temp equal (260-$i)*10
variable Temp equal (260-26)*10
fix 		1 all langevin 2340 2340 100 29345 zero yes
run 2000
Loop time of 167.174 on 32 procs for 2000 steps with 2000 atoms

next i
jump SELF loop_cooling
variable i loop 1 200
variable Temp equal (260-$i)*10
variable Temp equal (260-27)*10
fix 		1 all langevin 2330 2330 100 29345 zero yes
run 2000
Loop time of 167.299 on 32 procs for 2000 steps with 2000 atoms

next i
jump SELF loop_cooling
variable i loop 1 200
variable Temp equal (260-$i)*10
variable Temp equal (260-28)*10
fix 		1 all langevin 2320 2320 100 29345 zero yes
run 2000
Loop time of 167.318 on 32 procs for 2000 steps with 2000 atoms

next i
jump SELF loop_cooling
variable i loop 1 200
variable Temp equal (260-$i)*10
variable Temp equal (260-29)*10
fix 		1 all langevin 2310 2310 100 29345 zero yes
run 2000
Loop time of 167.329 on 32 procs for 2000 steps with 2000 atoms

next i
jump SELF loop_cooling
variable i loop 1 200
variable Temp equal (260-$i)*10
variable Temp equal (260-30)*10
fix 		1 all langevin 2300 2300 100 29345 zero yes
run 2000
Loop time of 167.269 on 32 procs for 2000 steps with 2000 atoms

next i
jump SELF loop_cooling
variable i loop 1 200
variable Temp equal (260-$i)*10
variable Temp equal (260-31)*10
fix 		1 all langevin 2290 2290 100 29345 zero yes
run 2000
Loop time of 167.119 on 32 procs for 2000 steps with 2000 atoms

next i
jump SELF loop_cooling
variable i loop 1 200
variable Temp equal (260-$i)*10
variable Temp equal (260-32)*10
fix 		1 all langevin 2280 2280 100 29345 zero yes
run 2000
Loop time of 167.059 on 32 procs for 2000 steps with 2000 atoms

next i
jump SELF loop_cooling
variable i loop 1 200
variable Temp equal (260-$i)*10
variable Temp equal (260-33)*10
fix 		1 all langevin 2270 2270 100 29345 zero yes
run 2000
Loop time of 167.143 on 32 procs for 2000 steps with 2000 atoms

next i
jump SELF loop_cooling
variable i loop 1 200
variable Temp equal (260-$i)*10
variable Temp equal (260-34)*10
fix 		1 all langevin 2260 2260 100 29345 zero yes
run 2000
Loop time of 167.122 on 32 procs for 2000 steps with 2000 atoms

next i
jump SELF loop_cooling
variable i loop 1 200
variable Temp equal (260-$i)*10
variable Temp equal (260-35)*10
fix 		1 all langevin 2250 2250 100 29345 zero yes
run 2000
Loop time of 167.286 on 32 procs for 2000 steps with 2000 atoms

next i
jump SELF loop_cooling
variable i loop 1 200
variable Temp equal (260-$i)*10
variable Temp equal (260-36)*10
fix 		1 all langevin 2240 2240 100 29345 zero yes
run 2000
Loop time of 167.032 on 32 procs for 2000 steps with 2000 atoms

next i
jump SELF loop_cooling
variable i loop 1 200
variable Temp equal (260-$i)*10
variable Temp equal (260-37)*10
fix 		1 all langevin 2230 2230 100 29345 zero yes
run 2000
Loop time of 167.143 on 32 procs for 2000 steps with 2000 atoms

next i
jump SELF loop_cooling
variable i loop 1 200
variable Temp equal (260-$i)*10
variable Temp equal (260-38)*10
fix 		1 all langevin 2220 2220 100 29345 zero yes
run 2000
Loop time of 167.469 on 32 procs for 2000 steps with 2000 atoms

next i
jump SELF loop_cooling
variable i loop 1 200
variable Temp equal (260-$i)*10
variable Temp equal (260-39)*10
fix 		1 all langevin 2210 2210 100 29345 zero yes
run 2000
Loop time of 167.175 on 32 procs for 2000 steps with 2000 atoms

next i
jump SELF loop_cooling
variable i loop 1 200
variable Temp equal (260-$i)*10
variable Temp equal (260-40)*10
fix 		1 all langevin 2200 2200 100 29345 zero yes
run 2000
Loop time of 167.178 on 32 procs for 2000 steps with 2000 atoms

next i
jump SELF loop_cooling
variable i loop 1 200
variable Temp equal (260-$i)*10
variable Temp equal (260-41)*10
fix 		1 all langevin 2190 2190 100 29345 zero yes
run 2000
Loop time of 167.143 on 32 procs for 2000 steps with 2000 atoms

next i
jump SELF loop_cooling
variable i loop 1 200
variable Temp equal (260-$i)*10
variable Temp equal (260-42)*10
fix 		1 all langevin 2180 2180 100 29345 zero yes
run 2000
Loop time of 167.015 on 32 procs for 2000 steps with 2000 atoms

next i
jump SELF loop_cooling
variable i loop 1 200
variable Temp equal (260-$i)*10
variable Temp equal (260-43)*10
fix 		1 all langevin 2170 2170 100 29345 zero yes
run 2000
Loop time of 166.975 on 32 procs for 2000 steps with 2000 atoms

next i
jump SELF loop_cooling
variable i loop 1 200
variable Temp equal (260-$i)*10
variable Temp equal (260-44)*10
fix 		1 all langevin 2160 2160 100 29345 zero yes
run 2000
Loop time of 167.065 on 32 procs for 2000 steps with 2000 atoms

next i
jump SELF loop_cooling
variable i loop 1 200
variable Temp equal (260-$i)*10
variable Temp equal (260-45)*10
fix 		1 all langevin 2150 2150 100 29345 zero yes
run 2000
Loop time of 166.927 on 32 procs for 2000 steps with 2000 atoms

next i
jump SELF loop_cooling
variable i loop 1 200
variable Temp equal (260-$i)*10
variable Temp equal (260-46)*10
fix 		1 all langevin 2140 2140 100 29345 zero yes
run 2000
Loop time of 167.202 on 32 procs for 2000 steps with 2000 atoms

next i
jump SELF loop_cooling
variable i loop 1 200
variable Temp equal (260-$i)*10
variable Temp equal (260-47)*10
fix 		1 all langevin 2130 2130 100 29345 zero yes
run 2000
Loop time of 167.026 on 32 procs for 2000 steps with 2000 atoms

next i
jump SELF loop_cooling
variable i loop 1 200
variable Temp equal (260-$i)*10
variable Temp equal (260-48)*10
fix 		1 all langevin 2120 2120 100 29345 zero yes
run 2000
Loop time of 167.049 on 32 procs for 2000 steps with 2000 atoms

next i
jump SELF loop_cooling
variable i loop 1 200
variable Temp equal (260-$i)*10
variable Temp equal (260-49)*10
fix 		1 all langevin 2110 2110 100 29345 zero yes
run 2000
Loop time of 167.043 on 32 procs for 2000 steps with 2000 atoms

next i
jump SELF loop_cooling
variable i loop 1 200
variable Temp equal (260-$i)*10
variable Temp equal (260-50)*10
fix 		1 all langevin 2100 2100 100 29345 zero yes
run 2000
Loop time of 166.952 on 32 procs for 2000 steps with 2000 atoms

next i
jump SELF loop_cooling
variable i loop 1 200
variable Temp equal (260-$i)*10
variable Temp equal (260-51)*10
fix 		1 all langevin 2090 2090 100 29345 zero yes
run 2000
Loop time of 167.012 on 32 procs for 2000 steps with 2000 atoms

next i
jump SELF loop_cooling
variable i loop 1 200
variable Temp equal (260-$i)*10
variable Temp equal (260-52)*10
fix 		1 all langevin 2080 2080 100 29345 zero yes
run 2000
Loop time of 166.815 on 32 procs for 2000 steps with 2000 atoms

next i
jump SELF loop_cooling
variable i loop 1 200
variable Temp equal (260-$i)*10
variable Temp equal (260-53)*10
fix 		1 all langevin 2070 2070 100 29345 zero yes
run 2000
Loop time of 166.896 on 32 procs for 2000 steps with 2000 atoms

next i
jump SELF loop_cooling
variable i loop 1 200
variable Temp equal (260-$i)*10
variable Temp equal (260-54)*10
fix 		1 all langevin 2060 2060 100 29345 zero yes
run 2000
Loop time of 166.682 on 32 procs for 2000 steps with 2000 atoms

next i
jump SELF loop_cooling
variable i loop 1 200
variable Temp equal (260-$i)*10
variable Temp equal (260-55)*10
fix 		1 all langevin 2050 2050 100 29345 zero yes
run 2000
Loop time of 166.894 on 32 procs for 2000 steps with 2000 atoms

next i
jump SELF loop_cooling
variable i loop 1 200
variable Temp equal (260-$i)*10
variable Temp equal (260-56)*10
fix 		1 all langevin 2040 2040 100 29345 zero yes
run 2000
Loop time of 166.724 on 32 procs for 2000 steps with 2000 atoms

next i
jump SELF loop_cooling
variable i loop 1 200
variable Temp equal (260-$i)*10
variable Temp equal (260-57)*10
fix 		1 all langevin 2030 2030 100 29345 zero yes
run 2000
Loop time of 166.93 on 32 procs for 2000 steps with 2000 atoms

next i
jump SELF loop_cooling
variable i loop 1 200
variable Temp equal (260-$i)*10
variable Temp equal (260-58)*10
fix 		1 all langevin 2020 2020 100 29345 zero yes
run 2000
Loop time of 166.815 on 32 procs for 2000 steps with 2000 atoms

next i
jump SELF loop_cooling
variable i loop 1 200
variable Temp equal (260-$i)*10
variable Temp equal (260-59)*10
fix 		1 all langevin 2010 2010 100 29345 zero yes
run 2000
Loop time of 166.843 on 32 procs for 2000 steps with 2000 atoms

next i
jump SELF loop_cooling
variable i loop 1 200
variable Temp equal (260-$i)*10
variable Temp equal (260-60)*10
fix 		1 all langevin 2000 2000 100 29345 zero yes
run 2000
Loop time of 166.914 on 32 procs for 2000 steps with 2000 atoms

next i
jump SELF loop_cooling
variable i loop 1 200
variable Temp equal (260-$i)*10
variable Temp equal (260-61)*10
fix 		1 all langevin 1990 1990 100 29345 zero yes
run 2000
Loop time of 166.635 on 32 procs for 2000 steps with 2000 atoms

next i
jump SELF loop_cooling
variable i loop 1 200
variable Temp equal (260-$i)*10
variable Temp equal (260-62)*10
fix 		1 all langevin 1980 1980 100 29345 zero yes
run 2000
Loop time of 167.095 on 32 procs for 2000 steps with 2000 atoms

next i
jump SELF loop_cooling
variable i loop 1 200
variable Temp equal (260-$i)*10
variable Temp equal (260-63)*10
fix 		1 all langevin 1970 1970 100 29345 zero yes
run 2000
Loop time of 167.121 on 32 procs for 2000 steps with 2000 atoms

next i
jump SELF loop_cooling
variable i loop 1 200
variable Temp equal (260-$i)*10
variable Temp equal (260-64)*10
fix 		1 all langevin 1960 1960 100 29345 zero yes
run 2000
Loop time of 166.72 on 32 procs for 2000 steps with 2000 atoms

next i
jump SELF loop_cooling
variable i loop 1 200
variable Temp equal (260-$i)*10
variable Temp equal (260-65)*10
fix 		1 all langevin 1950 1950 100 29345 zero yes
run 2000
Loop time of 166.956 on 32 procs for 2000 steps with 2000 atoms

next i
jump SELF loop_cooling
variable i loop 1 200
variable Temp equal (260-$i)*10
variable Temp equal (260-66)*10
fix 		1 all langevin 1940 1940 100 29345 zero yes
run 2000
Loop time of 166.682 on 32 procs for 2000 steps with 2000 atoms

next i
jump SELF loop_cooling
variable i loop 1 200
variable Temp equal (260-$i)*10
variable Temp equal (260-67)*10
fix 		1 all langevin 1930 1930 100 29345 zero yes
run 2000
Loop time of 166.699 on 32 procs for 2000 steps with 2000 atoms

next i
jump SELF loop_cooling
variable i loop 1 200
variable Temp equal (260-$i)*10
variable Temp equal (260-68)*10
fix 		1 all langevin 1920 1920 100 29345 zero yes
run 2000
Loop time of 166.653 on 32 procs for 2000 steps with 2000 atoms

next i
jump SELF loop_cooling
variable i loop 1 200
variable Temp equal (260-$i)*10
variable Temp equal (260-69)*10
fix 		1 all langevin 1910 1910 100 29345 zero yes
run 2000
Loop time of 166.576 on 32 procs for 2000 steps with 2000 atoms

next i
jump SELF loop_cooling
variable i loop 1 200
variable Temp equal (260-$i)*10
variable Temp equal (260-70)*10
fix 		1 all langevin 1900 1900 100 29345 zero yes
run 2000
Loop time of 166.486 on 32 procs for 2000 steps with 2000 atoms

next i
jump SELF loop_cooling
variable i loop 1 200
variable Temp equal (260-$i)*10
variable Temp equal (260-71)*10
fix 		1 all langevin 1890 1890 100 29345 zero yes
run 2000
Loop time of 166.607 on 32 procs for 2000 steps with 2000 atoms

next i
jump SELF loop_cooling
variable i loop 1 200
variable Temp equal (260-$i)*10
variable Temp equal (260-72)*10
fix 		1 all langevin 1880 1880 100 29345 zero yes
run 2000
Loop time of 166.638 on 32 procs for 2000 steps with 2000 atoms

next i
jump SELF loop_cooling
variable i loop 1 200
variable Temp equal (260-$i)*10
variable Temp equal (260-73)*10
fix 		1 all langevin 1870 1870 100 29345 zero yes
run 2000
Loop time of 166.674 on 32 procs for 2000 steps with 2000 atoms

next i
jump SELF loop_cooling
variable i loop 1 200
variable Temp equal (260-$i)*10
variable Temp equal (260-74)*10
fix 		1 all langevin 1860 1860 100 29345 zero yes
run 2000
Loop time of 166.459 on 32 procs for 2000 steps with 2000 atoms

next i
jump SELF loop_cooling
variable i loop 1 200
variable Temp equal (260-$i)*10
variable Temp equal (260-75)*10
fix 		1 all langevin 1850 1850 100 29345 zero yes
run 2000
Loop time of 166.575 on 32 procs for 2000 steps with 2000 atoms

next i
jump SELF loop_cooling
variable i loop 1 200
variable Temp equal (260-$i)*10
variable Temp equal (260-76)*10
fix 		1 all langevin 1840 1840 100 29345 zero yes
run 2000
Loop time of 166.444 on 32 procs for 2000 steps with 2000 atoms

next i
jump SELF loop_cooling
variable i loop 1 200
variable Temp equal (260-$i)*10
variable Temp equal (260-77)*10
fix 		1 all langevin 1830 1830 100 29345 zero yes
run 2000
Loop time of 166.514 on 32 procs for 2000 steps with 2000 atoms

next i
jump SELF loop_cooling
variable i loop 1 200
variable Temp equal (260-$i)*10
variable Temp equal (260-78)*10
fix 		1 all langevin 1820 1820 100 29345 zero yes
run 2000
Loop time of 166.507 on 32 procs for 2000 steps with 2000 atoms

next i
jump SELF loop_cooling
variable i loop 1 200
variable Temp equal (260-$i)*10
variable Temp equal (260-79)*10
fix 		1 all langevin 1810 1810 100 29345 zero yes
run 2000
Loop time of 166.295 on 32 procs for 2000 steps with 2000 atoms

next i
jump SELF loop_cooling
variable i loop 1 200
variable Temp equal (260-$i)*10
variable Temp equal (260-80)*10
fix 		1 all langevin 1800 1800 100 29345 zero yes
run 2000
Loop time of 166.245 on 32 procs for 2000 steps with 2000 atoms

next i
jump SELF loop_cooling
variable i loop 1 200
variable Temp equal (260-$i)*10
variable Temp equal (260-81)*10
fix 		1 all langevin 1790 1790 100 29345 zero yes
run 2000
Loop time of 166.252 on 32 procs for 2000 steps with 2000 atoms

next i
jump SELF loop_cooling
variable i loop 1 200
variable Temp equal (260-$i)*10
variable Temp equal (260-82)*10
fix 		1 all langevin 1780 1780 100 29345 zero yes
run 2000
Loop time of 166.381 on 32 procs for 2000 steps with 2000 atoms

next i
jump SELF loop_cooling
variable i loop 1 200
variable Temp equal (260-$i)*10
variable Temp equal (260-83)*10
fix 		1 all langevin 1770 1770 100 29345 zero yes
run 2000
Loop time of 166.41 on 32 procs for 2000 steps with 2000 atoms

next i
jump SELF loop_cooling
variable i loop 1 200
variable Temp equal (260-$i)*10
variable Temp equal (260-84)*10
fix 		1 all langevin 1760 1760 100 29345 zero yes
run 2000
Loop time of 166.304 on 32 procs for 2000 steps with 2000 atoms

next i
jump SELF loop_cooling
variable i loop 1 200
variable Temp equal (260-$i)*10
variable Temp equal (260-85)*10
fix 		1 all langevin 1750 1750 100 29345 zero yes
run 2000
Loop time of 166.259 on 32 procs for 2000 steps with 2000 atoms

next i
jump SELF loop_cooling
variable i loop 1 200
variable Temp equal (260-$i)*10
variable Temp equal (260-86)*10
fix 		1 all langevin 1740 1740 100 29345 zero yes
run 2000
Loop time of 166.254 on 32 procs for 2000 steps with 2000 atoms

next i
jump SELF loop_cooling
variable i loop 1 200
variable Temp equal (260-$i)*10
variable Temp equal (260-87)*10
fix 		1 all langevin 1730 1730 100 29345 zero yes
run 2000
Loop time of 166.411 on 32 procs for 2000 steps with 2000 atoms

next i
jump SELF loop_cooling
variable i loop 1 200
variable Temp equal (260-$i)*10
variable Temp equal (260-88)*10
fix 		1 all langevin 1720 1720 100 29345 zero yes
run 2000
Loop time of 166.253 on 32 procs for 2000 steps with 2000 atoms

next i
jump SELF loop_cooling
variable i loop 1 200
variable Temp equal (260-$i)*10
variable Temp equal (260-89)*10
fix 		1 all langevin 1710 1710 100 29345 zero yes
run 2000
Loop time of 166.114 on 32 procs for 2000 steps with 2000 atoms

next i
jump SELF loop_cooling
variable i loop 1 200
variable Temp equal (260-$i)*10
variable Temp equal (260-90)*10
fix 		1 all langevin 1700 1700 100 29345 zero yes
run 2000
Loop time of 165.969 on 32 procs for 2000 steps with 2000 atoms

next i
jump SELF loop_cooling
variable i loop 1 200
variable Temp equal (260-$i)*10
variable Temp equal (260-91)*10
fix 		1 all langevin 1690 1690 100 29345 zero yes
run 2000
Loop time of 166.144 on 32 procs for 2000 steps with 2000 atoms

next i
jump SELF loop_cooling
variable i loop 1 200
variable Temp equal (260-$i)*10
variable Temp equal (260-92)*10
fix 		1 all langevin 1680 1680 100 29345 zero yes
run 2000
Loop time of 166.006 on 32 procs for 2000 steps with 2000 atoms

next i
jump SELF loop_cooling
variable i loop 1 200
variable Temp equal (260-$i)*10
variable Temp equal (260-93)*10
fix 		1 all langevin 1670 1670 100 29345 zero yes
run 2000
Loop time of 166.284 on 32 procs for 2000 steps with 2000 atoms

next i
jump SELF loop_cooling
variable i loop 1 200
variable Temp equal (260-$i)*10
variable Temp equal (260-94)*10
fix 		1 all langevin 1660 1660 100 29345 zero yes
run 2000
Loop time of 166.057 on 32 procs for 2000 steps with 2000 atoms

next i
jump SELF loop_cooling
variable i loop 1 200
variable Temp equal (260-$i)*10
variable Temp equal (260-95)*10
fix 		1 all langevin 1650 1650 100 29345 zero yes
run 2000
Loop time of 166.234 on 32 procs for 2000 steps with 2000 atoms

next i
jump SELF loop_cooling
variable i loop 1 200
variable Temp equal (260-$i)*10
variable Temp equal (260-96)*10
fix 		1 all langevin 1640 1640 100 29345 zero yes
run 2000
Loop time of 165.923 on 32 procs for 2000 steps with 2000 atoms

next i
jump SELF loop_cooling
variable i loop 1 200
variable Temp equal (260-$i)*10
variable Temp equal (260-97)*10
fix 		1 all langevin 1630 1630 100 29345 zero yes
run 2000
Loop time of 165.886 on 32 procs for 2000 steps with 2000 atoms

next i
jump SELF loop_cooling
variable i loop 1 200
variable Temp equal (260-$i)*10
variable Temp equal (260-98)*10
fix 		1 all langevin 1620 1620 100 29345 zero yes
run 2000
Loop time of 165.995 on 32 procs for 2000 steps with 2000 atoms

next i
jump SELF loop_cooling
variable i loop 1 200
variable Temp equal (260-$i)*10
variable Temp equal (260-99)*10
fix 		1 all langevin 1610 1610 100 29345 zero yes
run 2000
Loop time of 166.581 on 32 procs for 2000 steps with 2000 atoms

next i
jump SELF loop_cooling
variable i loop 1 200
variable Temp equal (260-$i)*10
variable Temp equal (260-100)*10
fix 		1 all langevin 1600 1600 100 29345 zero yes
run 2000
Loop time of 166.056 on 32 procs for 2000 steps with 2000 atoms

next i
jump SELF loop_cooling
variable i loop 1 200
variable Temp equal (260-$i)*10
variable Temp equal (260-101)*10
fix 		1 all langevin 1590 1590 100 29345 zero yes
run 2000
Loop time of 165.98 on 32 procs for 2000 steps with 2000 atoms

next i
jump SELF loop_cooling
variable i loop 1 200
variable Temp equal (260-$i)*10
variable Temp equal (260-102)*10
fix 		1 all langevin 1580 1580 100 29345 zero yes
run 2000
Loop time of 165.977 on 32 procs for 2000 steps with 2000 atoms

next i
jump SELF loop_cooling
variable i loop 1 200
variable Temp equal (260-$i)*10
variable Temp equal (260-103)*10
fix 		1 all langevin 1570 1570 100 29345 zero yes
run 2000
Loop time of 165.91 on 32 procs for 2000 steps with 2000 atoms

next i
jump SELF loop_cooling
variable i loop 1 200
variable Temp equal (260-$i)*10
variable Temp equal (260-104)*10
fix 		1 all langevin 1560 1560 100 29345 zero yes
run 2000
Loop time of 165.946 on 32 procs for 2000 steps with 2000 atoms

next i
jump SELF loop_cooling
variable i loop 1 200
variable Temp equal (260-$i)*10
variable Temp equal (260-105)*10
fix 		1 all langevin 1550 1550 100 29345 zero yes
run 2000
Loop time of 165.886 on 32 procs for 2000 steps with 2000 atoms

next i
jump SELF loop_cooling
variable i loop 1 200
variable Temp equal (260-$i)*10
variable Temp equal (260-106)*10
fix 		1 all langevin 1540 1540 100 29345 zero yes
run 2000
Loop time of 165.6 on 32 procs for 2000 steps with 2000 atoms

next i
jump SELF loop_cooling
variable i loop 1 200
variable Temp equal (260-$i)*10
variable Temp equal (260-107)*10
fix 		1 all langevin 1530 1530 100 29345 zero yes
run 2000
Loop time of 165.727 on 32 procs for 2000 steps with 2000 atoms

next i
jump SELF loop_cooling
variable i loop 1 200
variable Temp equal (260-$i)*10
variable Temp equal (260-108)*10
fix 		1 all langevin 1520 1520 100 29345 zero yes
run 2000
Loop time of 165.64 on 32 procs for 2000 steps with 2000 atoms

next i
jump SELF loop_cooling
variable i loop 1 200
variable Temp equal (260-$i)*10
variable Temp equal (260-109)*10
fix 		1 all langevin 1510 1510 100 29345 zero yes
run 2000
Loop time of 165.482 on 32 procs for 2000 steps with 2000 atoms

next i
jump SELF loop_cooling
variable i loop 1 200
variable Temp equal (260-$i)*10
variable Temp equal (260-110)*10
fix 		1 all langevin 1500 1500 100 29345 zero yes
run 2000
Loop time of 165.478 on 32 procs for 2000 steps with 2000 atoms

next i
jump SELF loop_cooling
variable i loop 1 200
variable Temp equal (260-$i)*10
variable Temp equal (260-111)*10
fix 		1 all langevin 1490 1490 100 29345 zero yes
run 2000
Loop time of 165.252 on 32 procs for 2000 steps with 2000 atoms

next i
jump SELF loop_cooling
variable i loop 1 200
variable Temp equal (260-$i)*10
variable Temp equal (260-112)*10
fix 		1 all langevin 1480 1480 100 29345 zero yes
run 2000
Loop time of 165.423 on 32 procs for 2000 steps with 2000 atoms

next i
jump SELF loop_cooling
variable i loop 1 200
variable Temp equal (260-$i)*10
variable Temp equal (260-113)*10
fix 		1 all langevin 1470 1470 100 29345 zero yes
run 2000
Loop time of 165.706 on 32 procs for 2000 steps with 2000 atoms

next i
jump SELF loop_cooling
variable i loop 1 200
variable Temp equal (260-$i)*10
variable Temp equal (260-114)*10
fix 		1 all langevin 1460 1460 100 29345 zero yes
run 2000
Loop time of 165.373 on 32 procs for 2000 steps with 2000 atoms

next i
jump SELF loop_cooling
variable i loop 1 200
variable Temp equal (260-$i)*10
variable Temp equal (260-115)*10
fix 		1 all langevin 1450 1450 100 29345 zero yes
run 2000
Loop time of 165.374 on 32 procs for 2000 steps with 2000 atoms

next i
jump SELF loop_cooling
variable i loop 1 200
variable Temp equal (260-$i)*10
variable Temp equal (260-116)*10
fix 		1 all langevin 1440 1440 100 29345 zero yes
run 2000
Loop time of 165.529 on 32 procs for 2000 steps with 2000 atoms

next i
jump SELF loop_cooling
variable i loop 1 200
variable Temp equal (260-$i)*10
variable Temp equal (260-117)*10
fix 		1 all langevin 1430 1430 100 29345 zero yes
run 2000
Loop time of 165.346 on 32 procs for 2000 steps with 2000 atoms

next i
jump SELF loop_cooling
variable i loop 1 200
variable Temp equal (260-$i)*10
variable Temp equal (260-118)*10
fix 		1 all langevin 1420 1420 100 29345 zero yes
run 2000
Loop time of 165.247 on 32 procs for 2000 steps with 2000 atoms

next i
jump SELF loop_cooling
variable i loop 1 200
variable Temp equal (260-$i)*10
variable Temp equal (260-119)*10
fix 		1 all langevin 1410 1410 100 29345 zero yes
run 2000
Loop time of 165.349 on 32 procs for 2000 steps with 2000 atoms

next i
jump SELF loop_cooling
variable i loop 1 200
variable Temp equal (260-$i)*10
variable Temp equal (260-120)*10
fix 		1 all langevin 1400 1400 100 29345 zero yes
run 2000
Loop time of 165.036 on 32 procs for 2000 steps with 2000 atoms

next i
jump SELF loop_cooling
variable i loop 1 200
variable Temp equal (260-$i)*10
variable Temp equal (260-121)*10
fix 		1 all langevin 1390 1390 100 29345 zero yes
run 2000
Loop time of 165.127 on 32 procs for 2000 steps with 2000 atoms

next i
jump SELF loop_cooling
variable i loop 1 200
variable Temp equal (260-$i)*10
variable Temp equal (260-122)*10
fix 		1 all langevin 1380 1380 100 29345 zero yes
run 2000
Loop time of 165 on 32 procs for 2000 steps with 2000 atoms

next i
jump SELF loop_cooling
variable i loop 1 200
variable Temp equal (260-$i)*10
variable Temp equal (260-123)*10
fix 		1 all langevin 1370 1370 100 29345 zero yes
run 2000
Loop time of 165.055 on 32 procs for 2000 steps with 2000 atoms

next i
jump SELF loop_cooling
variable i loop 1 200
variable Temp equal (260-$i)*10
variable Temp equal (260-124)*10
fix 		1 all langevin 1360 1360 100 29345 zero yes
run 2000
Loop time of 165.004 on 32 procs for 2000 steps with 2000 atoms

next i
jump SELF loop_cooling
variable i loop 1 200
variable Temp equal (260-$i)*10
variable Temp equal (260-125)*10
fix 		1 all langevin 1350 1350 100 29345 zero yes
run 2000
Loop time of 165.021 on 32 procs for 2000 steps with 2000 atoms

next i
jump SELF loop_cooling
variable i loop 1 200
variable Temp equal (260-$i)*10
variable Temp equal (260-126)*10
fix 		1 all langevin 1340 1340 100 29345 zero yes
run 2000
Loop time of 164.763 on 32 procs for 2000 steps with 2000 atoms

next i
jump SELF loop_cooling
variable i loop 1 200
variable Temp equal (260-$i)*10
variable Temp equal (260-127)*10
fix 		1 all langevin 1330 1330 100 29345 zero yes
run 2000
Loop time of 164.747 on 32 procs for 2000 steps with 2000 atoms

next i
jump SELF loop_cooling
variable i loop 1 200
variable Temp equal (260-$i)*10
variable Temp equal (260-128)*10
fix 		1 all langevin 1320 1320 100 29345 zero yes
run 2000
Loop time of 164.775 on 32 procs for 2000 steps with 2000 atoms

next i
jump SELF loop_cooling
variable i loop 1 200
variable Temp equal (260-$i)*10
variable Temp equal (260-129)*10
fix 		1 all langevin 1310 1310 100 29345 zero yes
run 2000
Loop time of 164.688 on 32 procs for 2000 steps with 2000 atoms

next i
jump SELF loop_cooling
variable i loop 1 200
variable Temp equal (260-$i)*10
variable Temp equal (260-130)*10
fix 		1 all langevin 1300 1300 100 29345 zero yes
run 2000
Loop time of 164.742 on 32 procs for 2000 steps with 2000 atoms

next i
jump SELF loop_cooling
variable i loop 1 200
variable Temp equal (260-$i)*10
variable Temp equal (260-131)*10
fix 		1 all langevin 1290 1290 100 29345 zero yes
run 2000
Loop time of 164.611 on 32 procs for 2000 steps with 2000 atoms

next i
jump SELF loop_cooling
variable i loop 1 200
variable Temp equal (260-$i)*10
variable Temp equal (260-132)*10
fix 		1 all langevin 1280 1280 100 29345 zero yes
run 2000
Loop time of 164.998 on 32 procs for 2000 steps with 2000 atoms

next i
jump SELF loop_cooling
variable i loop 1 200
variable Temp equal (260-$i)*10
variable Temp equal (260-133)*10
fix 		1 all langevin 1270 1270 100 29345 zero yes
run 2000
Loop time of 164.546 on 32 procs for 2000 steps with 2000 atoms

next i
jump SELF loop_cooling
variable i loop 1 200
variable Temp equal (260-$i)*10
variable Temp equal (260-134)*10
fix 		1 all langevin 1260 1260 100 29345 zero yes
run 2000
Loop time of 164.766 on 32 procs for 2000 steps with 2000 atoms

next i
jump SELF loop_cooling
variable i loop 1 200
variable Temp equal (260-$i)*10
variable Temp equal (260-135)*10
fix 		1 all langevin 1250 1250 100 29345 zero yes
run 2000
Loop time of 164.593 on 32 procs for 2000 steps with 2000 atoms

next i
jump SELF loop_cooling
variable i loop 1 200
variable Temp equal (260-$i)*10
variable Temp equal (260-136)*10
fix 		1 all langevin 1240 1240 100 29345 zero yes
run 2000
Loop time of 164.508 on 32 procs for 2000 steps with 2000 atoms

next i
jump SELF loop_cooling
variable i loop 1 200
variable Temp equal (260-$i)*10
variable Temp equal (260-137)*10
fix 		1 all langevin 1230 1230 100 29345 zero yes
run 2000
Loop time of 164.733 on 32 procs for 2000 steps with 2000 atoms

next i
jump SELF loop_cooling
variable i loop 1 200
variable Temp equal (260-$i)*10
variable Temp equal (260-138)*10
fix 		1 all langevin 1220 1220 100 29345 zero yes
run 2000
Loop time of 164.704 on 32 procs for 2000 steps with 2000 atoms

next i
jump SELF loop_cooling
variable i loop 1 200
variable Temp equal (260-$i)*10
variable Temp equal (260-139)*10
fix 		1 all langevin 1210 1210 100 29345 zero yes
run 2000
Loop time of 164.532 on 32 procs for 2000 steps with 2000 atoms

next i
jump SELF loop_cooling
variable i loop 1 200
variable Temp equal (260-$i)*10
variable Temp equal (260-140)*10
fix 		1 all langevin 1200 1200 100 29345 zero yes
run 2000
Loop time of 164.228 on 32 procs for 2000 steps with 2000 atoms

next i
jump SELF loop_cooling
variable i loop 1 200
variable Temp equal (260-$i)*10
variable Temp equal (260-141)*10
fix 		1 all langevin 1190 1190 100 29345 zero yes
run 2000
Loop time of 164.051 on 32 procs for 2000 steps with 2000 atoms

next i
jump SELF loop_cooling
variable i loop 1 200
variable Temp equal (260-$i)*10
variable Temp equal (260-142)*10
fix 		1 all langevin 1180 1180 100 29345 zero yes
run 2000
Loop time of 164.057 on 32 procs for 2000 steps with 2000 atoms

next i
jump SELF loop_cooling
variable i loop 1 200
variable Temp equal (260-$i)*10
variable Temp equal (260-143)*10
fix 		1 all langevin 1170 1170 100 29345 zero yes
run 2000
Loop time of 164.037 on 32 procs for 2000 steps with 2000 atoms

next i
jump SELF loop_cooling
variable i loop 1 200
variable Temp equal (260-$i)*10
variable Temp equal (260-144)*10
fix 		1 all langevin 1160 1160 100 29345 zero yes
run 2000
Loop time of 163.778 on 32 procs for 2000 steps with 2000 atoms

next i
jump SELF loop_cooling
variable i loop 1 200
variable Temp equal (260-$i)*10
variable Temp equal (260-145)*10
fix 		1 all langevin 1150 1150 100 29345 zero yes
run 2000
Loop time of 163.902 on 32 procs for 2000 steps with 2000 atoms

next i
jump SELF loop_cooling
variable i loop 1 200
variable Temp equal (260-$i)*10
variable Temp equal (260-146)*10
fix 		1 all langevin 1140 1140 100 29345 zero yes
run 2000
Loop time of 163.978 on 32 procs for 2000 steps with 2000 atoms

next i
jump SELF loop_cooling
variable i loop 1 200
variable Temp equal (260-$i)*10
variable Temp equal (260-147)*10
fix 		1 all langevin 1130 1130 100 29345 zero yes
run 2000
Loop time of 163.724 on 32 procs for 2000 steps with 2000 atoms

next i
jump SELF loop_cooling
variable i loop 1 200
variable Temp equal (260-$i)*10
variable Temp equal (260-148)*10
fix 		1 all langevin 1120 1120 100 29345 zero yes
run 2000
Loop time of 163.546 on 32 procs for 2000 steps with 2000 atoms

next i
jump SELF loop_cooling
variable i loop 1 200
variable Temp equal (260-$i)*10
variable Temp equal (260-149)*10
fix 		1 all langevin 1110 1110 100 29345 zero yes
run 2000
Loop time of 163.47 on 32 procs for 2000 steps with 2000 atoms

next i
jump SELF loop_cooling
variable i loop 1 200
variable Temp equal (260-$i)*10
variable Temp equal (260-150)*10
fix 		1 all langevin 1100 1100 100 29345 zero yes
run 2000
Loop time of 163.326 on 32 procs for 2000 steps with 2000 atoms

next i
jump SELF loop_cooling
variable i loop 1 200
variable Temp equal (260-$i)*10
variable Temp equal (260-151)*10
fix 		1 all langevin 1090 1090 100 29345 zero yes
run 2000
Loop time of 163.292 on 32 procs for 2000 steps with 2000 atoms

next i
jump SELF loop_cooling
variable i loop 1 200
variable Temp equal (260-$i)*10
variable Temp equal (260-152)*10
fix 		1 all langevin 1080 1080 100 29345 zero yes
run 2000
Loop time of 163.149 on 32 procs for 2000 steps with 2000 atoms

next i
jump SELF loop_cooling
variable i loop 1 200
variable Temp equal (260-$i)*10
variable Temp equal (260-153)*10
fix 		1 all langevin 1070 1070 100 29345 zero yes
run 2000
Loop time of 163.399 on 32 procs for 2000 steps with 2000 atoms

next i
jump SELF loop_cooling
variable i loop 1 200
variable Temp equal (260-$i)*10
variable Temp equal (260-154)*10
fix 		1 all langevin 1060 1060 100 29345 zero yes
run 2000
Loop time of 163.097 on 32 procs for 2000 steps with 2000 atoms

next i
jump SELF loop_cooling
variable i loop 1 200
variable Temp equal (260-$i)*10
variable Temp equal (260-155)*10
fix 		1 all langevin 1050 1050 100 29345 zero yes
run 2000
Loop time of 163.009 on 32 procs for 2000 steps with 2000 atoms

next i
jump SELF loop_cooling
variable i loop 1 200
variable Temp equal (260-$i)*10
variable Temp equal (260-156)*10
fix 		1 all langevin 1040 1040 100 29345 zero yes
run 2000
Loop time of 162.92 on 32 procs for 2000 steps with 2000 atoms

next i
jump SELF loop_cooling
variable i loop 1 200
variable Temp equal (260-$i)*10
variable Temp equal (260-157)*10
fix 		1 all langevin 1030 1030 100 29345 zero yes
run 2000
Loop time of 162.934 on 32 procs for 2000 steps with 2000 atoms

next i
jump SELF loop_cooling
variable i loop 1 200
variable Temp equal (260-$i)*10
variable Temp equal (260-158)*10
fix 		1 all langevin 1020 1020 100 29345 zero yes
run 2000
Loop time of 162.879 on 32 procs for 2000 steps with 2000 atoms

next i
jump SELF loop_cooling
variable i loop 1 200
variable Temp equal (260-$i)*10
variable Temp equal (260-159)*10
fix 		1 all langevin 1010 1010 100 29345 zero yes
run 2000
Loop time of 162.744 on 32 procs for 2000 steps with 2000 atoms

next i
jump SELF loop_cooling
variable i loop 1 200
variable Temp equal (260-$i)*10
variable Temp equal (260-160)*10
fix 		1 all langevin 1000 1000 100 29345 zero yes
run 2000
Loop time of 162.547 on 32 procs for 2000 steps with 2000 atoms

next i
jump SELF loop_cooling
variable i loop 1 200
variable Temp equal (260-$i)*10
variable Temp equal (260-161)*10
fix 		1 all langevin 990 990 100 29345 zero yes
run 2000
Loop time of 162.581 on 32 procs for 2000 steps with 2000 atoms

next i
jump SELF loop_cooling
variable i loop 1 200
variable Temp equal (260-$i)*10
variable Temp equal (260-162)*10
fix 		1 all langevin 980 980 100 29345 zero yes
run 2000
Loop time of 162.529 on 32 procs for 2000 steps with 2000 atoms

next i
jump SELF loop_cooling
variable i loop 1 200
variable Temp equal (260-$i)*10
variable Temp equal (260-163)*10
fix 		1 all langevin 970 970 100 29345 zero yes
run 2000
Loop time of 162.501 on 32 procs for 2000 steps with 2000 atoms

next i
jump SELF loop_cooling
variable i loop 1 200
variable Temp equal (260-$i)*10
variable Temp equal (260-164)*10
fix 		1 all langevin 960 960 100 29345 zero yes
run 2000
Loop time of 162.431 on 32 procs for 2000 steps with 2000 atoms

next i
jump SELF loop_cooling
variable i loop 1 200
variable Temp equal (260-$i)*10
variable Temp equal (260-165)*10
fix 		1 all langevin 950 950 100 29345 zero yes
run 2000
Loop time of 162.272 on 32 procs for 2000 steps with 2000 atoms

next i
jump SELF loop_cooling
variable i loop 1 200
variable Temp equal (260-$i)*10
variable Temp equal (260-166)*10
fix 		1 all langevin 940 940 100 29345 zero yes
run 2000
Loop time of 161.925 on 32 procs for 2000 steps with 2000 atoms

next i
jump SELF loop_cooling
variable i loop 1 200
variable Temp equal (260-$i)*10
variable Temp equal (260-167)*10
fix 		1 all langevin 930 930 100 29345 zero yes
run 2000
Loop time of 162.28 on 32 procs for 2000 steps with 2000 atoms

next i
jump SELF loop_cooling
variable i loop 1 200
variable Temp equal (260-$i)*10
variable Temp equal (260-168)*10
fix 		1 all langevin 920 920 100 29345 zero yes
run 2000
Loop time of 162.116 on 32 procs for 2000 steps with 2000 atoms

next i
jump SELF loop_cooling
variable i loop 1 200
variable Temp equal (260-$i)*10
variable Temp equal (260-169)*10
fix 		1 all langevin 910 910 100 29345 zero yes
run 2000
Loop time of 161.978 on 32 procs for 2000 steps with 2000 atoms

next i
jump SELF loop_cooling
variable i loop 1 200
variable Temp equal (260-$i)*10
variable Temp equal (260-170)*10
fix 		1 all langevin 900 900 100 29345 zero yes
run 2000
Loop time of 161.902 on 32 procs for 2000 steps with 2000 atoms

next i
jump SELF loop_cooling
variable i loop 1 200
variable Temp equal (260-$i)*10
variable Temp equal (260-171)*10
fix 		1 all langevin 890 890 100 29345 zero yes
run 2000
Loop time of 161.636 on 32 procs for 2000 steps with 2000 atoms

next i
jump SELF loop_cooling
variable i loop 1 200
variable Temp equal (260-$i)*10
variable Temp equal (260-172)*10
fix 		1 all langevin 880 880 100 29345 zero yes
run 2000
Loop time of 161.789 on 32 procs for 2000 steps with 2000 atoms

next i
jump SELF loop_cooling
variable i loop 1 200
variable Temp equal (260-$i)*10
variable Temp equal (260-173)*10
fix 		1 all langevin 870 870 100 29345 zero yes
run 2000
Loop time of 161.745 on 32 procs for 2000 steps with 2000 atoms

next i
jump SELF loop_cooling
variable i loop 1 200
variable Temp equal (260-$i)*10
variable Temp equal (260-174)*10
fix 		1 all langevin 860 860 100 29345 zero yes
run 2000
Loop time of 163.028 on 32 procs for 2000 steps with 2000 atoms

next i
jump SELF loop_cooling
variable i loop 1 200
variable Temp equal (260-$i)*10
variable Temp equal (260-175)*10
fix 		1 all langevin 850 850 100 29345 zero yes
run 2000
Loop time of 163.296 on 32 procs for 2000 steps with 2000 atoms

next i
jump SELF loop_cooling
variable i loop 1 200
variable Temp equal (260-$i)*10
variable Temp equal (260-176)*10
fix 		1 all langevin 840 840 100 29345 zero yes
run 2000
Loop time of 163.184 on 32 procs for 2000 steps with 2000 atoms

next i
jump SELF loop_cooling
variable i loop 1 200
variable Temp equal (260-$i)*10
variable Temp equal (260-177)*10
fix 		1 all langevin 830 830 100 29345 zero yes
run 2000
Loop time of 162.59 on 32 procs for 2000 steps with 2000 atoms

next i
jump SELF loop_cooling
variable i loop 1 200
variable Temp equal (260-$i)*10
variable Temp equal (260-178)*10
fix 		1 all langevin 820 820 100 29345 zero yes
run 2000
Loop time of 163.18 on 32 procs for 2000 steps with 2000 atoms

next i
jump SELF loop_cooling
variable i loop 1 200
variable Temp equal (260-$i)*10
variable Temp equal (260-179)*10
fix 		1 all langevin 810 810 100 29345 zero yes
run 2000
Loop time of 162.992 on 32 procs for 2000 steps with 2000 atoms

next i
jump SELF loop_cooling
variable i loop 1 200
variable Temp equal (260-$i)*10
variable Temp equal (260-180)*10
fix 		1 all langevin 800 800 100 29345 zero yes
run 2000
Loop time of 162.901 on 32 procs for 2000 steps with 2000 atoms

next i
jump SELF loop_cooling
variable i loop 1 200
variable Temp equal (260-$i)*10
variable Temp equal (260-181)*10
fix 		1 all langevin 790 790 100 29345 zero yes
run 2000
Loop time of 162.73 on 32 procs for 2000 steps with 2000 atoms

next i
jump SELF loop_cooling
variable i loop 1 200
variable Temp equal (260-$i)*10
variable Temp equal (260-182)*10
fix 		1 all langevin 780 780 100 29345 zero yes
run 2000
Loop time of 162.752 on 32 procs for 2000 steps with 2000 atoms

next i
jump SELF loop_cooling
variable i loop 1 200
variable Temp equal (260-$i)*10
variable Temp equal (260-183)*10
fix 		1 all langevin 770 770 100 29345 zero yes
run 2000
Loop time of 162.539 on 32 procs for 2000 steps with 2000 atoms

next i
jump SELF loop_cooling
variable i loop 1 200
variable Temp equal (260-$i)*10
variable Temp equal (260-184)*10
fix 		1 all langevin 760 760 100 29345 zero yes
run 2000
Loop time of 162.165 on 32 procs for 2000 steps with 2000 atoms

next i
jump SELF loop_cooling
variable i loop 1 200
variable Temp equal (260-$i)*10
variable Temp equal (260-185)*10
fix 		1 all langevin 750 750 100 29345 zero yes
run 2000
Loop time of 162.412 on 32 procs for 2000 steps with 2000 atoms

next i
jump SELF loop_cooling
variable i loop 1 200
variable Temp equal (260-$i)*10
variable Temp equal (260-186)*10
fix 		1 all langevin 740 740 100 29345 zero yes
run 2000
Loop time of 162.22 on 32 procs for 2000 steps with 2000 atoms

next i
jump SELF loop_cooling
variable i loop 1 200
variable Temp equal (260-$i)*10
variable Temp equal (260-187)*10
fix 		1 all langevin 730 730 100 29345 zero yes
run 2000
Loop time of 162.221 on 32 procs for 2000 steps with 2000 atoms

next i
jump SELF loop_cooling
variable i loop 1 200
variable Temp equal (260-$i)*10
variable Temp equal (260-188)*10
fix 		1 all langevin 720 720 100 29345 zero yes
run 2000
Loop time of 161.79 on 32 procs for 2000 steps with 2000 atoms

next i
jump SELF loop_cooling
variable i loop 1 200
variable Temp equal (260-$i)*10
variable Temp equal (260-189)*10
fix 		1 all langevin 710 710 100 29345 zero yes
run 2000
Loop time of 161.56 on 32 procs for 2000 steps with 2000 atoms

next i
jump SELF loop_cooling
variable i loop 1 200
variable Temp equal (260-$i)*10
variable Temp equal (260-190)*10
fix 		1 all langevin 700 700 100 29345 zero yes
run 2000
Loop time of 161.612 on 32 procs for 2000 steps with 2000 atoms

next i
jump SELF loop_cooling
variable i loop 1 200
variable Temp equal (260-$i)*10
variable Temp equal (260-191)*10
fix 		1 all langevin 690 690 100 29345 zero yes
run 2000
Loop time of 161.5 on 32 procs for 2000 steps with 2000 atoms

next i
jump SELF loop_cooling
variable i loop 1 200
variable Temp equal (260-$i)*10
variable Temp equal (260-192)*10
fix 		1 all langevin 680 680 100 29345 zero yes
run 2000
Loop time of 161.164 on 32 procs for 2000 steps with 2000 atoms

next i
jump SELF loop_cooling
variable i loop 1 200
variable Temp equal (260-$i)*10
variable Temp equal (260-193)*10
fix 		1 all langevin 670 670 100 29345 zero yes
run 2000
Loop time of 161.383 on 32 procs for 2000 steps with 2000 atoms

next i
jump SELF loop_cooling
variable i loop 1 200
variable Temp equal (260-$i)*10
variable Temp equal (260-194)*10
fix 		1 all langevin 660 660 100 29345 zero yes
run 2000
Loop time of 161.161 on 32 procs for 2000 steps with 2000 atoms

next i
jump SELF loop_cooling
variable i loop 1 200
variable Temp equal (260-$i)*10
variable Temp equal (260-195)*10
fix 		1 all langevin 650 650 100 29345 zero yes
run 2000
Loop time of 160.968 on 32 procs for 2000 steps with 2000 atoms

next i
jump SELF loop_cooling
variable i loop 1 200
variable Temp equal (260-$i)*10
variable Temp equal (260-196)*10
fix 		1 all langevin 640 640 100 29345 zero yes
run 2000
Loop time of 160.822 on 32 procs for 2000 steps with 2000 atoms

next i
jump SELF loop_cooling
variable i loop 1 200
variable Temp equal (260-$i)*10
variable Temp equal (260-197)*10
fix 		1 all langevin 630 630 100 29345 zero yes
run 2000
Loop time of 160.619 on 32 procs for 2000 steps with 2000 atoms

next i
jump SELF loop_cooling
variable i loop 1 200
variable Temp equal (260-$i)*10
variable Temp equal (260-198)*10
fix 		1 all langevin 620 620 100 29345 zero yes
run 2000
Loop time of 160.21 on 32 procs for 2000 steps with 2000 atoms

next i
jump SELF loop_cooling
variable i loop 1 200
variable Temp equal (260-$i)*10
variable Temp equal (260-199)*10
fix 		1 all langevin 610 610 100 29345 zero yes
run 2000
Loop time of 160.337 on 32 procs for 2000 steps with 2000 atoms

next i
jump SELF loop_cooling
variable i loop 1 200
variable Temp equal (260-$i)*10
variable Temp equal (260-200)*10
fix 		1 all langevin 600 600 100 29345 zero yes
run 2000
Loop time of 160.253 on 32 procs for 2000 steps with 2000 atoms

next i
jump SELF loop_cooling
