LAMMPS (3 Nov 2022)
KOKKOS mode is enabled (../kokkos.cpp:106)
  will use up to 1 GPU(s) per node
package kokkos
package kokkos newton on neigh half
units 		real
atom_style      charge

lattice 	bcc 2.87
Lattice spacing in x,y,z = 2.87 2.87 2.87
region		bulto block -5 5 -5 5 -5 5
create_box      1 bulto
Created orthogonal box = (-14.35 -14.35 -14.35) to (14.35 14.35 14.35)
create_atoms	1 region bulto
Created 2000 atoms

mass * 55.845
# Choose potential
pair_style      reax/c NULL checkqeq no
pair_coeff      * * CHOFeAlNiCuSCr_v3.ff Fe

#JR: Charge minimization
#fix             qeq all qeq/reax 1 0.0 10.0 1.0e-6 reax/c

neighbor   3.5 bin
neigh_modify    every 2 delay 4 check yes page 100000

velocity        all create 300.0 4928459 rot yes dist gaussian

compute         msd all msd

compute         Stress all stress/atom NULL virial
compute         pe all pe/atom
compute         ke all ke/atom

timestep        1
#fix nve      all nve
fix 		npt all nph iso 0 0 1000
#fix          press  all press/berendsen iso 0 0 1000

thermo          100
thermo_style custom step temp pe ke etotal vol press c_msd[4]
dump  mydump all custom 1000 dump.coordenadas id type q x y z vx vy vz c_pe c_ke c_Stress[1] c_Stress[2] c_Stress[3]

fix 		1 all langevin  300 1500 100 29345 zero yes
run 10000

CITE-CITE-CITE-CITE-CITE-CITE-CITE-CITE-CITE-CITE-CITE-CITE-CITE

Your simulation uses code contributions which should be cited:

- pair reaxff command: doi:10.1016/j.parco.2011.08.005

@Article{Aktulga12,
 author = {H. M. Aktulga and J. C. Fogarty and S. A. Pandit and A. Y. Grama},
 title = {Parallel Reactive Molecular Dynamics: {N}umerical Methods and Algorithmic Techniques},
 journal = {Parallel Computing},
 year =    2012,
 volume =  38,
 number =  {4--5},
 pages =   {245--259}
}

CITE-CITE-CITE-CITE-CITE-CITE-CITE-CITE-CITE-CITE-CITE-CITE-CITE

Step          Temp          PotEng         KinEng         TotEng         Volume         Press         c_msd[4]
0   300           -212644.23      1787.5918     -210856.64      23639.903     -43651.663      0
Averages over the last 51 of 101 rows, steps 5000 to 10000:
Temp PotEng KinEng TotEng Volume Press c_msd[4]
1188.73 -196640 7083.19 -189557 23096.2 10.726 0.0659688
Loop time of 215.967 on 1 procs for 10000 steps with 2000 atoms

label loop_heating
variable i loop 151 260
variable Temp equal $i*10
variable Temp equal 151*10
fix 		1 all langevin 1510 1510 100 29345 zero yes
run 2000
Step          Temp          PotEng         KinEng         TotEng         Volume         Press         c_msd[4]
10000   1458.4189     -194311.11      8690.1919     -185620.92      23155.197      530.91694      0.084798882
Averages over the last 11 of 21 rows, steps 11000 to 12000:
Temp PotEng KinEng TotEng Volume Press c_msd[4]
1511.94 -194369 9009.11 -185360 23160.7 -36.6632 0.0819343
Loop time of 48.3464 on 1 procs for 2000 steps with 2000 atoms

next i
jump SELF loop_heating
variable i loop 151 260
variable Temp equal $i*10
variable Temp equal 152*10
fix 		1 all langevin 1520 1520 100 29345 zero yes
run 2000
Step          Temp          PotEng         KinEng         TotEng         Volume         Press         c_msd[4]
12000   1522.3912     -194778.9       9071.3799     -185707.52      23189.09      -1987.7411      0.078477179
Averages over the last 11 of 21 rows, steps 13000 to 14000:
Temp PotEng KinEng TotEng Volume Press c_msd[4]
1520.2 -194401 9058.35 -185343 23158.4 222.724 0.0813348
Loop time of 49.5811 on 1 procs for 2000 steps with 2000 atoms

next i
jump SELF loop_heating
variable i loop 151 260
variable Temp equal $i*10
variable Temp equal 153*10
fix 		1 all langevin 1530 1530 100 29345 zero yes
run 2000
Step          Temp          PotEng         KinEng         TotEng         Volume         Press         c_msd[4]
14000   1538.4373     -194368.99      9166.9932     -185201.99      23198.473      461.83274      0.077984813
Averages over the last 11 of 21 rows, steps 15000 to 16000:
Temp PotEng KinEng TotEng Volume Press c_msd[4]
1536.26 -194275 9154.05 -185121 23165.6 -222.54 0.0826024
Loop time of 48.3738 on 1 procs for 2000 steps with 2000 atoms

next i
jump SELF loop_heating
variable i loop 151 260
variable Temp equal $i*10
variable Temp equal 154*10
fix 		1 all langevin 1540 1540 100 29345 zero yes
run 2000
Step          Temp          PotEng         KinEng         TotEng         Volume         Press         c_msd[4]
16000   1546.166      -194816.95      9213.0456     -185603.91      23107.944      36.712109      0.08270311
Averages over the last 11 of 21 rows, steps 17000 to 18000:
Temp PotEng KinEng TotEng Volume Press c_msd[4]
1535.49 -194240 9149.44 -185090 23168.3 -279.662 0.0843084
Loop time of 49.8516 on 1 procs for 2000 steps with 2000 atoms

next i
jump SELF loop_heating
variable i loop 151 260
variable Temp equal $i*10
variable Temp equal 155*10
fix 		1 all langevin 1550 1550 100 29345 zero yes
run 2000
Step          Temp          PotEng         KinEng         TotEng         Volume         Press         c_msd[4]
18000   1525.9142     -194249.99      9092.3726     -185157.62      23205.754     -2648.114       0.084743371
Averages over the last 11 of 21 rows, steps 19000 to 20000:
Temp PotEng KinEng TotEng Volume Press c_msd[4]
1547.88 -194087 9223.23 -184864 23168.6 19.7154 0.0832027
Loop time of 48.9062 on 1 procs for 2000 steps with 2000 atoms

next i
jump SELF loop_heating
variable i loop 151 260
variable Temp equal $i*10
variable Temp equal 156*10
fix 		1 all langevin 1560 1560 100 29345 zero yes
run 2000
Step          Temp          PotEng         KinEng         TotEng         Volume         Press         c_msd[4]
20000   1570.9086     -194060.87      9360.4779     -184700.39      23151.718     -507.3617       0.080554387
Averages over the last 11 of 21 rows, steps 21000 to 22000:
Temp PotEng KinEng TotEng Volume Press c_msd[4]
1563.67 -194008 9317.37 -184690 23176.4 -187.336 0.0834842
Loop time of 49.2384 on 1 procs for 2000 steps with 2000 atoms

next i
jump SELF loop_heating
variable i loop 151 260
variable Temp equal $i*10
variable Temp equal 157*10
fix 		1 all langevin 1570 1570 100 29345 zero yes
run 2000
Step          Temp          PotEng         KinEng         TotEng         Volume         Press         c_msd[4]
22000   1595.8301     -193495.4       9508.976      -183986.42      23180.999     -197.40599      0.082925423
Averages over the last 11 of 21 rows, steps 23000 to 24000:
Temp PotEng KinEng TotEng Volume Press c_msd[4]
1581 -194050 9420.61 -184630 23173.2 405.31 0.0829547
Loop time of 49.4105 on 1 procs for 2000 steps with 2000 atoms

next i
jump SELF loop_heating
variable i loop 151 260
variable Temp equal $i*10
variable Temp equal 158*10
fix 		1 all langevin 1580 1580 100 29345 zero yes
run 2000
Step          Temp          PotEng         KinEng         TotEng         Volume         Press         c_msd[4]
24000   1604.6134     -193173.85      9561.3124     -183612.54      23155.444      2507.2019      0.085636158
Averages over the last 11 of 21 rows, steps 25000 to 26000:
Temp PotEng KinEng TotEng Volume Press c_msd[4]
1584.85 -194008 9443.54 -184564 23175.3 -46.6651 0.083981
Loop time of 49.9165 on 1 procs for 2000 steps with 2000 atoms

next i
jump SELF loop_heating
variable i loop 151 260
variable Temp equal $i*10
variable Temp equal 159*10
fix 		1 all langevin 1590 1590 100 29345 zero yes
run 2000
Step          Temp          PotEng         KinEng         TotEng         Volume         Press         c_msd[4]
26000   1589.0783     -193715.2       9468.7443     -184246.46      23226.322     -1636.2181      0.082619611
Averages over the last 11 of 21 rows, steps 27000 to 28000:
Temp PotEng KinEng TotEng Volume Press c_msd[4]
1583.42 -193812 9435.06 -184377 23179.1 -93.476 0.0838612
Loop time of 50.0356 on 1 procs for 2000 steps with 2000 atoms

next i
jump SELF loop_heating
variable i loop 151 260
variable Temp equal $i*10
variable Temp equal 160*10
fix 		1 all langevin 1600 1600 100 29345 zero yes
run 2000
Step          Temp          PotEng         KinEng         TotEng         Volume         Press         c_msd[4]
28000   1568.1999     -194795.21      9344.3377     -185450.87      23166.691     -3304.0858      0.086491874
Averages over the last 11 of 21 rows, steps 29000 to 30000:
Temp PotEng KinEng TotEng Volume Press c_msd[4]
1585.85 -193866 9449.48 -184417 23180.4 -73.1463 0.0847614
Loop time of 49.8682 on 1 procs for 2000 steps with 2000 atoms

next i
jump SELF loop_heating
variable i loop 151 260
variable Temp equal $i*10
variable Temp equal 161*10
fix 		1 all langevin 1610 1610 100 29345 zero yes
run 2000
Step          Temp          PotEng         KinEng         TotEng         Volume         Press         c_msd[4]
30000   1644.7149     -194240.93      9800.2626     -184440.66      23216.847     -1751.0997      0.08001309
Averages over the last 11 of 21 rows, steps 31000 to 32000:
Temp PotEng KinEng TotEng Volume Press c_msd[4]
1611.6 -193589 9602.96 -183986 23185.9 -172.896 0.0877339
Loop time of 49.82 on 1 procs for 2000 steps with 2000 atoms

next i
jump SELF loop_heating
variable i loop 151 260
variable Temp equal $i*10
variable Temp equal 162*10
fix 		1 all langevin 1620 1620 100 29345 zero yes
run 2000
Step          Temp          PotEng         KinEng         TotEng         Volume         Press         c_msd[4]
32000   1657.4788     -192611.31      9876.3181     -182734.99      23170.071      3878.3817      0.087860174
Averages over the last 11 of 21 rows, steps 33000 to 34000:
Temp PotEng KinEng TotEng Volume Press c_msd[4]
1612.47 -193647 9608.15 -184039 23185 -78.2957 0.0865157
Loop time of 49.6771 on 1 procs for 2000 steps with 2000 atoms

next i
jump SELF loop_heating
variable i loop 151 260
variable Temp equal $i*10
variable Temp equal 163*10
fix 		1 all langevin 1630 1630 100 29345 zero yes
run 2000
Step          Temp          PotEng         KinEng         TotEng         Volume         Press         c_msd[4]
34000   1585.087      -191892.14      9444.9618     -182447.18      23190.826      3319.4121      0.087306249
Averages over the last 11 of 21 rows, steps 35000 to 36000:
Temp PotEng KinEng TotEng Volume Press c_msd[4]
1634.67 -193583 9740.39 -183842 23184.1 226.705 0.0864565
Loop time of 49.7407 on 1 procs for 2000 steps with 2000 atoms

next i
jump SELF loop_heating
variable i loop 151 260
variable Temp equal $i*10
variable Temp equal 164*10
fix 		1 all langevin 1640 1640 100 29345 zero yes
run 2000
Step          Temp          PotEng         KinEng         TotEng         Volume         Press         c_msd[4]
36000   1608.4195     -193396.33      9583.9914     -183812.34      23189.089      911.00023      0.090509157
Averages over the last 11 of 21 rows, steps 37000 to 38000:
Temp PotEng KinEng TotEng Volume Press c_msd[4]
1642.19 -193472 9785.23 -183687 23192.6 -55.7792 0.0897225
Loop time of 50.1852 on 1 procs for 2000 steps with 2000 atoms

next i
jump SELF loop_heating
variable i loop 151 260
variable Temp equal $i*10
variable Temp equal 165*10
fix 		1 all langevin 1650 1650 100 29345 zero yes
run 2000
Step          Temp          PotEng         KinEng         TotEng         Volume         Press         c_msd[4]
38000   1678.4938     -194928.89      10001.539     -184927.35      23216.867     -3156.4404      0.091234616
Averages over the last 11 of 21 rows, steps 39000 to 40000:
Temp PotEng KinEng TotEng Volume Press c_msd[4]
1655.34 -193531 9863.58 -183667 23191.2 -200.046 0.0871229
Loop time of 50.1027 on 1 procs for 2000 steps with 2000 atoms

next i
jump SELF loop_heating
variable i loop 151 260
variable Temp equal $i*10
variable Temp equal 166*10
fix 		1 all langevin 1660 1660 100 29345 zero yes
run 2000
Step          Temp          PotEng         KinEng         TotEng         Volume         Press         c_msd[4]
40000   1654.3852     -193478.2       9857.8847     -183620.32      23192.492      91.200106      0.086959433
Averages over the last 11 of 21 rows, steps 41000 to 42000:
Temp PotEng KinEng TotEng Volume Press c_msd[4]
1668.91 -193363 9944.43 -183418 23188.1 107.03 0.0896179
Loop time of 50.3654 on 1 procs for 2000 steps with 2000 atoms

next i
jump SELF loop_heating
variable i loop 151 260
variable Temp equal $i*10
variable Temp equal 167*10
fix 		1 all langevin 1670 1670 100 29345 zero yes
run 2000
Step          Temp          PotEng         KinEng         TotEng         Volume         Press         c_msd[4]
42000   1702.8636     -194853.47      10146.75      -184706.72      23166.625      783.57664      0.086306966
Averages over the last 11 of 21 rows, steps 43000 to 44000:
Temp PotEng KinEng TotEng Volume Press c_msd[4]
1657.97 -193323 9879.25 -183443 23197.1 -117.509 0.0890269
Loop time of 49.5982 on 1 procs for 2000 steps with 2000 atoms

next i
jump SELF loop_heating
variable i loop 151 260
variable Temp equal $i*10
variable Temp equal 168*10
fix 		1 all langevin 1680 1680 100 29345 zero yes
run 2000
Step          Temp          PotEng         KinEng         TotEng         Volume         Press         c_msd[4]
44000   1721.7122     -193762.79      10259.062     -183503.73      23195.849      2327.1169      0.089074406
Averages over the last 11 of 21 rows, steps 45000 to 46000:
Temp PotEng KinEng TotEng Volume Press c_msd[4]
1668.87 -193141 9944.21 -183197 23205.9 -309.327 0.08955
Loop time of 49.789 on 1 procs for 2000 steps with 2000 atoms

next i
jump SELF loop_heating
variable i loop 151 260
variable Temp equal $i*10
variable Temp equal 169*10
fix 		1 all langevin 1690 1690 100 29345 zero yes
run 2000
Step          Temp          PotEng         KinEng         TotEng         Volume         Press         c_msd[4]
46000   1669.0999     -193226.89      9945.5645     -183281.32      23264.01      -6609.292       0.085974547
Averages over the last 11 of 21 rows, steps 47000 to 48000:
Temp PotEng KinEng TotEng Volume Press c_msd[4]
1686.08 -193201 10046.7 -183154 23200.8 -196.809 0.0907981
Loop time of 50.2259 on 1 procs for 2000 steps with 2000 atoms

next i
jump SELF loop_heating
variable i loop 151 260
variable Temp equal $i*10
variable Temp equal 170*10
fix 		1 all langevin 1700 1700 100 29345 zero yes
run 2000
Step          Temp          PotEng         KinEng         TotEng         Volume         Press         c_msd[4]
48000   1689.1934     -191680.01      10065.294     -181614.72      23248.779     -1581.5208      0.091247332
Averages over the last 11 of 21 rows, steps 49000 to 50000:
Temp PotEng KinEng TotEng Volume Press c_msd[4]
1702.6 -193061 10145.2 -182916 23205.9 -29.8137 0.0914638
Loop time of 50.1885 on 1 procs for 2000 steps with 2000 atoms

next i
jump SELF loop_heating
variable i loop 151 260
variable Temp equal $i*10
variable Temp equal 171*10
fix 		1 all langevin 1710 1710 100 29345 zero yes
run 2000
Step          Temp          PotEng         KinEng         TotEng         Volume         Press         c_msd[4]
50000   1705.458      -193721.6       10162.209     -183559.39      23229.901     -4131.7443      0.088682985
Averages over the last 11 of 21 rows, steps 51000 to 52000:
Temp PotEng KinEng TotEng Volume Press c_msd[4]
1712.58 -193034 10204.6 -182830 23205.1 -111.012 0.0906604
Loop time of 50.2127 on 1 procs for 2000 steps with 2000 atoms

next i
jump SELF loop_heating
variable i loop 151 260
variable Temp equal $i*10
variable Temp equal 172*10
fix 		1 all langevin 1720 1720 100 29345 zero yes
run 2000
Step          Temp          PotEng         KinEng         TotEng         Volume         Press         c_msd[4]
52000   1723.0949     -192036.71      10267.301     -181769.41      23204.068      3353.1083      0.091002057
Averages over the last 11 of 21 rows, steps 53000 to 54000:
Temp PotEng KinEng TotEng Volume Press c_msd[4]
1723.74 -192965 10271.2 -182694 23203.4 91.3837 0.0907623
Loop time of 50.7434 on 1 procs for 2000 steps with 2000 atoms

next i
jump SELF loop_heating
variable i loop 151 260
variable Temp equal $i*10
variable Temp equal 173*10
fix 		1 all langevin 1730 1730 100 29345 zero yes
run 2000
Step          Temp          PotEng         KinEng         TotEng         Volume         Press         c_msd[4]
54000   1759.2942     -194626.41      10482.999     -184143.41      23183.001      2686.068       0.091526348
Averages over the last 11 of 21 rows, steps 55000 to 56000:
Temp PotEng KinEng TotEng Volume Press c_msd[4]
1719.84 -192880 10247.9 -182632 23211.9 -186.017 0.0930398
Loop time of 50.6684 on 1 procs for 2000 steps with 2000 atoms

next i
jump SELF loop_heating
variable i loop 151 260
variable Temp equal $i*10
variable Temp equal 174*10
fix 		1 all langevin 1740 1740 100 29345 zero yes
run 2000
Step          Temp          PotEng         KinEng         TotEng         Volume         Press         c_msd[4]
56000   1732.2266     -192601.17      10321.714     -182279.45      23295.941     -2386.2205      0.08975561
Averages over the last 11 of 21 rows, steps 57000 to 58000:
Temp PotEng KinEng TotEng Volume Press c_msd[4]
1747.27 -192774 10411.4 -182363 23217 263.974 0.093518
Loop time of 50.3318 on 1 procs for 2000 steps with 2000 atoms

next i
jump SELF loop_heating
variable i loop 151 260
variable Temp equal $i*10
variable Temp equal 175*10
fix 		1 all langevin 1750 1750 100 29345 zero yes
run 2000
Step          Temp          PotEng         KinEng         TotEng         Volume         Press         c_msd[4]
58000   1753.3473     -193323.99      10447.564     -182876.43      23187.675     -1203.6531      0.097749947
Averages over the last 11 of 21 rows, steps 59000 to 60000:
Temp PotEng KinEng TotEng Volume Press c_msd[4]
1740.5 -192773 10371 -182402 23215.9 -191.833 0.0936399
Loop time of 50.6444 on 1 procs for 2000 steps with 2000 atoms

next i
jump SELF loop_heating
variable i loop 151 260
variable Temp equal $i*10
variable Temp equal 176*10
fix 		1 all langevin 1760 1760 100 29345 zero yes
run 2000
Step          Temp          PotEng         KinEng         TotEng         Volume         Press         c_msd[4]
60000   1757.2213     -193306.79      10470.648     -182836.15      23280.979     -6355.8383      0.093294493
Averages over the last 11 of 21 rows, steps 61000 to 62000:
Temp PotEng KinEng TotEng Volume Press c_msd[4]
1750.4 -192672 10430 -182242 23220.8 -88.2526 0.0925893
Loop time of 50.5416 on 1 procs for 2000 steps with 2000 atoms

next i
jump SELF loop_heating
variable i loop 151 260
variable Temp equal $i*10
variable Temp equal 177*10
fix 		1 all langevin 1770 1770 100 29345 zero yes
run 2000
Step          Temp          PotEng         KinEng         TotEng         Volume         Press         c_msd[4]
62000   1792.6584     -193268.79      10681.805     -182586.98      23195.644      1912.9969      0.094203672
Averages over the last 11 of 21 rows, steps 63000 to 64000:
Temp PotEng KinEng TotEng Volume Press c_msd[4]
1752.46 -192610 10442.3 -182168 23216.2 -191.545 0.0968106
Loop time of 50.9997 on 1 procs for 2000 steps with 2000 atoms

next i
jump SELF loop_heating
variable i loop 151 260
variable Temp equal $i*10
variable Temp equal 178*10
fix 		1 all langevin 1780 1780 100 29345 zero yes
run 2000
Step          Temp          PotEng         KinEng         TotEng         Volume         Press         c_msd[4]
64000   1779.9675     -192619.54      10606.184     -182013.36      23245.705     -3328.8193      0.10051807
Averages over the last 11 of 21 rows, steps 65000 to 66000:
Temp PotEng KinEng TotEng Volume Press c_msd[4]
1778.09 -192541 10595 -181946 23220.2 125.151 0.0956976
Loop time of 50.6106 on 1 procs for 2000 steps with 2000 atoms

next i
jump SELF loop_heating
variable i loop 151 260
variable Temp equal $i*10
variable Temp equal 179*10
fix 		1 all langevin 1790 1790 100 29345 zero yes
run 2000
Step          Temp          PotEng         KinEng         TotEng         Volume         Press         c_msd[4]
66000   1804.7821     -192500.88      10754.045     -181746.83      23201.058      3562.3065      0.10119932
Averages over the last 11 of 21 rows, steps 67000 to 68000:
Temp PotEng KinEng TotEng Volume Press c_msd[4]
1789.45 -192352 10662.7 -181689 23225.5 -134.759 0.0975707
Loop time of 50.7704 on 1 procs for 2000 steps with 2000 atoms

next i
jump SELF loop_heating
variable i loop 151 260
variable Temp equal $i*10
variable Temp equal 180*10
fix 		1 all langevin 1800 1800 100 29345 zero yes
run 2000
Step          Temp          PotEng         KinEng         TotEng         Volume         Press         c_msd[4]
68000   1793.8321     -191080.61      10688.798     -180391.81      23241.152      1201.8137      0.099727251
Averages over the last 11 of 21 rows, steps 69000 to 70000:
Temp PotEng KinEng TotEng Volume Press c_msd[4]
1793.48 -192426 10686.7 -181740 23223.3 43.9885 0.0956467
Loop time of 51.1208 on 1 procs for 2000 steps with 2000 atoms

next i
jump SELF loop_heating
variable i loop 151 260
variable Temp equal $i*10
variable Temp equal 181*10
fix 		1 all langevin 1810 1810 100 29345 zero yes
run 2000
Step          Temp          PotEng         KinEng         TotEng         Volume         Press         c_msd[4]
70000   1772.4775     -192214.47      10561.554     -181652.92      23220.785     -1758.0129      0.1004204
Averages over the last 11 of 21 rows, steps 71000 to 72000:
Temp PotEng KinEng TotEng Volume Press c_msd[4]
1805.86 -192229 10760.5 -181469 23229.2 -29.4988 0.0981312
Loop time of 50.7841 on 1 procs for 2000 steps with 2000 atoms

next i
jump SELF loop_heating
variable i loop 151 260
variable Temp equal $i*10
variable Temp equal 182*10
fix 		1 all langevin 1820 1820 100 29345 zero yes
run 2000
Step          Temp          PotEng         KinEng         TotEng         Volume         Press         c_msd[4]
72000   1820.0659     -193113.43      10845.116     -182268.31      23237.82      -1110.3738      0.094171592
Averages over the last 11 of 21 rows, steps 73000 to 74000:
Temp PotEng KinEng TotEng Volume Press c_msd[4]
1808.65 -192316 10777.1 -181539 23233.9 -25.8905 0.0970467
Loop time of 51.0118 on 1 procs for 2000 steps with 2000 atoms

next i
jump SELF loop_heating
variable i loop 151 260
variable Temp equal $i*10
variable Temp equal 183*10
fix 		1 all langevin 1830 1830 100 29345 zero yes
run 2000
Step          Temp          PotEng         KinEng         TotEng         Volume         Press         c_msd[4]
74000   1811.0301     -193046.73      10791.275     -182255.45      23239.676     -1349.9762      0.10075318
Averages over the last 11 of 21 rows, steps 75000 to 76000:
Temp PotEng KinEng TotEng Volume Press c_msd[4]
1822.52 -192059 10859.8 -181199 23233.8 176.839 0.0996976
Loop time of 51.0292 on 1 procs for 2000 steps with 2000 atoms

next i
jump SELF loop_heating
variable i loop 151 260
variable Temp equal $i*10
variable Temp equal 184*10
fix 		1 all langevin 1840 1840 100 29345 zero yes
run 2000
Step          Temp          PotEng         KinEng         TotEng         Volume         Press         c_msd[4]
76000   1846.5852     -193318.24      11003.135     -182315.11      23231.562     -1206.8397      0.10316416
Averages over the last 11 of 21 rows, steps 77000 to 78000:
Temp PotEng KinEng TotEng Volume Press c_msd[4]
1844.59 -192057 10991.3 -181066 23236.1 294.197 0.0996854
Loop time of 50.929 on 1 procs for 2000 steps with 2000 atoms

next i
jump SELF loop_heating
variable i loop 151 260
variable Temp equal $i*10
variable Temp equal 185*10
fix 		1 all langevin 1850 1850 100 29345 zero yes
run 2000
Step          Temp          PotEng         KinEng         TotEng         Volume         Press         c_msd[4]
78000   1896.2848     -193089.31      11299.277     -181790.03      23300.946     -3354.4804      0.097732233
Averages over the last 11 of 21 rows, steps 79000 to 80000:
Temp PotEng KinEng TotEng Volume Press c_msd[4]
1851.04 -191812 11029.7 -180783 23246.3 -35.8542 0.100986
Loop time of 50.7091 on 1 procs for 2000 steps with 2000 atoms

next i
jump SELF loop_heating
variable i loop 151 260
variable Temp equal $i*10
variable Temp equal 186*10
fix 		1 all langevin 1860 1860 100 29345 zero yes
run 2000
Step          Temp          PotEng         KinEng         TotEng         Volume         Press         c_msd[4]
80000   1828.8872     -192922.93      10897.679     -182025.25      23212.251     -37.765065      0.10240436
Averages over the last 11 of 21 rows, steps 81000 to 82000:
Temp PotEng KinEng TotEng Volume Press c_msd[4]
1863.18 -191909 11102 -180807 23237.6 213.232 0.100458
Loop time of 50.8191 on 1 procs for 2000 steps with 2000 atoms

next i
jump SELF loop_heating
variable i loop 151 260
variable Temp equal $i*10
variable Temp equal 187*10
fix 		1 all langevin 1870 1870 100 29345 zero yes
run 2000
Step          Temp          PotEng         KinEng         TotEng         Volume         Press         c_msd[4]
82000   1886.8406     -190038.84      11243.002     -178795.83      23232.374      4622.4785      0.0983738
Averages over the last 11 of 21 rows, steps 83000 to 84000:
Temp PotEng KinEng TotEng Volume Press c_msd[4]
1863.71 -191905 11105.2 -180800 23239.2 186.592 0.101069
Loop time of 50.9907 on 1 procs for 2000 steps with 2000 atoms

next i
jump SELF loop_heating
variable i loop 151 260
variable Temp equal $i*10
variable Temp equal 188*10
fix 		1 all langevin 1880 1880 100 29345 zero yes
run 2000
Step          Temp          PotEng         KinEng         TotEng         Volume         Press         c_msd[4]
84000   1885.9721     -191375.36      11237.828     -180137.53      23212.131      5962.8324      0.10096851
Averages over the last 11 of 21 rows, steps 85000 to 86000:
Temp PotEng KinEng TotEng Volume Press c_msd[4]
1869.03 -191737 11136.9 -180600 23248.7 -261.603 0.100841
Loop time of 51.4522 on 1 procs for 2000 steps with 2000 atoms

next i
jump SELF loop_heating
variable i loop 151 260
variable Temp equal $i*10
variable Temp equal 189*10
fix 		1 all langevin 1890 1890 100 29345 zero yes
run 2000
Step          Temp          PotEng         KinEng         TotEng         Volume         Press         c_msd[4]
86000   1918.8622     -192595.34      11433.808     -181161.53      23270.033     -1749.4149      0.099937204
Averages over the last 11 of 21 rows, steps 87000 to 88000:
Temp PotEng KinEng TotEng Volume Press c_msd[4]
1887.1 -191565 11244.5 -180321 23250.8 -375.485 0.10269
Loop time of 51.1223 on 1 procs for 2000 steps with 2000 atoms

next i
jump SELF loop_heating
variable i loop 151 260
variable Temp equal $i*10
variable Temp equal 190*10
fix 		1 all langevin 1900 1900 100 29345 zero yes
run 2000
Loop time of 50.9653 on 1 procs for 2000 steps with 2000 atoms

next i
jump SELF loop_heating
variable i loop 151 260
variable Temp equal $i*10
variable Temp equal 191*10
fix 		1 all langevin 1910 1910 100 29345 zero yes
run 2000
Loop time of 50.7784 on 1 procs for 2000 steps with 2000 atoms

next i
jump SELF loop_heating
variable i loop 151 260
variable Temp equal $i*10
variable Temp equal 192*10
fix 		1 all langevin 1920 1920 100 29345 zero yes
run 2000
Loop time of 51.0348 on 1 procs for 2000 steps with 2000 atoms

next i
jump SELF loop_heating
variable i loop 151 260
variable Temp equal $i*10
variable Temp equal 193*10
fix 		1 all langevin 1930 1930 100 29345 zero yes
run 2000
Loop time of 51.8256 on 1 procs for 2000 steps with 2000 atoms

next i
jump SELF loop_heating
variable i loop 151 260
variable Temp equal $i*10
variable Temp equal 194*10
fix 		1 all langevin 1940 1940 100 29345 zero yes
run 2000
Loop time of 51.3006 on 1 procs for 2000 steps with 2000 atoms

next i
jump SELF loop_heating
variable i loop 151 260
variable Temp equal $i*10
variable Temp equal 195*10
fix 		1 all langevin 1950 1950 100 29345 zero yes
run 2000
Loop time of 51.1104 on 1 procs for 2000 steps with 2000 atoms

next i
jump SELF loop_heating
variable i loop 151 260
variable Temp equal $i*10
variable Temp equal 196*10
fix 		1 all langevin 1960 1960 100 29345 zero yes
run 2000
Loop time of 51.6343 on 1 procs for 2000 steps with 2000 atoms

next i
jump SELF loop_heating
variable i loop 151 260
variable Temp equal $i*10
variable Temp equal 197*10
fix 		1 all langevin 1970 1970 100 29345 zero yes
run 2000
Loop time of 51.9295 on 1 procs for 2000 steps with 2000 atoms

next i
jump SELF loop_heating
variable i loop 151 260
variable Temp equal $i*10
variable Temp equal 198*10
fix 		1 all langevin 1980 1980 100 29345 zero yes
run 2000
Loop time of 51.4792 on 1 procs for 2000 steps with 2000 atoms

next i
jump SELF loop_heating
variable i loop 151 260
variable Temp equal $i*10
variable Temp equal 199*10
fix 		1 all langevin 1990 1990 100 29345 zero yes
run 2000
Loop time of 50.3331 on 1 procs for 2000 steps with 2000 atoms

next i
jump SELF loop_heating
variable i loop 151 260
variable Temp equal $i*10
variable Temp equal 200*10
fix 		1 all langevin 2000 2000 100 29345 zero yes
run 2000
Loop time of 53.6449 on 1 procs for 2000 steps with 2000 atoms

next i
jump SELF loop_heating
variable i loop 151 260
variable Temp equal $i*10
variable Temp equal 201*10
fix 		1 all langevin 2010 2010 100 29345 zero yes
run 2000
Loop time of 53.6599 on 1 procs for 2000 steps with 2000 atoms

next i
jump SELF loop_heating
variable i loop 151 260
variable Temp equal $i*10
variable Temp equal 202*10
fix 		1 all langevin 2020 2020 100 29345 zero yes
run 2000
Loop time of 53.3464 on 1 procs for 2000 steps with 2000 atoms

next i
jump SELF loop_heating
variable i loop 151 260
variable Temp equal $i*10
variable Temp equal 203*10
fix 		1 all langevin 2030 2030 100 29345 zero yes
run 2000
Loop time of 53.3831 on 1 procs for 2000 steps with 2000 atoms

next i
jump SELF loop_heating
variable i loop 151 260
variable Temp equal $i*10
variable Temp equal 204*10
fix 		1 all langevin 2040 2040 100 29345 zero yes
run 2000
Loop time of 53.1268 on 1 procs for 2000 steps with 2000 atoms

next i
jump SELF loop_heating
variable i loop 151 260
variable Temp equal $i*10
variable Temp equal 205*10
fix 		1 all langevin 2050 2050 100 29345 zero yes
run 2000
Loop time of 52.2353 on 1 procs for 2000 steps with 2000 atoms

next i
jump SELF loop_heating
variable i loop 151 260
variable Temp equal $i*10
variable Temp equal 206*10
fix 		1 all langevin 2060 2060 100 29345 zero yes
run 2000
Loop time of 52.9745 on 1 procs for 2000 steps with 2000 atoms

next i
jump SELF loop_heating
variable i loop 151 260
variable Temp equal $i*10
variable Temp equal 207*10
fix 		1 all langevin 2070 2070 100 29345 zero yes
run 2000
Loop time of 53.1359 on 1 procs for 2000 steps with 2000 atoms

next i
jump SELF loop_heating
variable i loop 151 260
variable Temp equal $i*10
variable Temp equal 208*10
fix 		1 all langevin 2080 2080 100 29345 zero yes
run 2000
Loop time of 52.8368 on 1 procs for 2000 steps with 2000 atoms

next i
jump SELF loop_heating
variable i loop 151 260
variable Temp equal $i*10
variable Temp equal 209*10
fix 		1 all langevin 2090 2090 100 29345 zero yes
run 2000
Loop time of 52.2152 on 1 procs for 2000 steps with 2000 atoms

next i
jump SELF loop_heating
variable i loop 151 260
variable Temp equal $i*10
variable Temp equal 210*10
fix 		1 all langevin 2100 2100 100 29345 zero yes
run 2000
Loop time of 52.1678 on 1 procs for 2000 steps with 2000 atoms

next i
jump SELF loop_heating
variable i loop 151 260
variable Temp equal $i*10
variable Temp equal 211*10
fix 		1 all langevin 2110 2110 100 29345 zero yes
run 2000
Loop time of 53.2209 on 1 procs for 2000 steps with 2000 atoms

next i
jump SELF loop_heating
variable i loop 151 260
variable Temp equal $i*10
variable Temp equal 212*10
fix 		1 all langevin 2120 2120 100 29345 zero yes
run 2000
Loop time of 52.5904 on 1 procs for 2000 steps with 2000 atoms

next i
jump SELF loop_heating
variable i loop 151 260
variable Temp equal $i*10
variable Temp equal 213*10
fix 		1 all langevin 2130 2130 100 29345 zero yes
run 2000
Loop time of 52.5659 on 1 procs for 2000 steps with 2000 atoms

next i
jump SELF loop_heating
variable i loop 151 260
variable Temp equal $i*10
variable Temp equal 214*10
fix 		1 all langevin 2140 2140 100 29345 zero yes
run 2000
Loop time of 52.4389 on 1 procs for 2000 steps with 2000 atoms

next i
jump SELF loop_heating
variable i loop 151 260
variable Temp equal $i*10
variable Temp equal 215*10
fix 		1 all langevin 2150 2150 100 29345 zero yes
run 2000
Loop time of 52.1991 on 1 procs for 2000 steps with 2000 atoms

next i
jump SELF loop_heating
variable i loop 151 260
variable Temp equal $i*10
variable Temp equal 216*10
fix 		1 all langevin 2160 2160 100 29345 zero yes
run 2000
Loop time of 52.36 on 1 procs for 2000 steps with 2000 atoms

next i
jump SELF loop_heating
variable i loop 151 260
variable Temp equal $i*10
variable Temp equal 217*10
fix 		1 all langevin 2170 2170 100 29345 zero yes
run 2000
Loop time of 51.2234 on 1 procs for 2000 steps with 2000 atoms

next i
jump SELF loop_heating
variable i loop 151 260
variable Temp equal $i*10
variable Temp equal 218*10
fix 		1 all langevin 2180 2180 100 29345 zero yes
run 2000
Loop time of 52.3572 on 1 procs for 2000 steps with 2000 atoms

next i
jump SELF loop_heating
variable i loop 151 260
variable Temp equal $i*10
variable Temp equal 219*10
fix 		1 all langevin 2190 2190 100 29345 zero yes
run 2000
Loop time of 52.1495 on 1 procs for 2000 steps with 2000 atoms

next i
jump SELF loop_heating
variable i loop 151 260
variable Temp equal $i*10
variable Temp equal 220*10
fix 		1 all langevin 2200 2200 100 29345 zero yes
run 2000
Loop time of 52.537 on 1 procs for 2000 steps with 2000 atoms

next i
jump SELF loop_heating
variable i loop 151 260
variable Temp equal $i*10
variable Temp equal 221*10
fix 		1 all langevin 2210 2210 100 29345 zero yes
run 2000
Loop time of 51.7329 on 1 procs for 2000 steps with 2000 atoms

next i
jump SELF loop_heating
variable i loop 151 260
variable Temp equal $i*10
variable Temp equal 222*10
fix 		1 all langevin 2220 2220 100 29345 zero yes
run 2000
Loop time of 51.3259 on 1 procs for 2000 steps with 2000 atoms

next i
jump SELF loop_heating
variable i loop 151 260
variable Temp equal $i*10
variable Temp equal 223*10
fix 		1 all langevin 2230 2230 100 29345 zero yes
run 2000
Loop time of 51.7975 on 1 procs for 2000 steps with 2000 atoms

next i
jump SELF loop_heating
variable i loop 151 260
variable Temp equal $i*10
variable Temp equal 224*10
fix 		1 all langevin 2240 2240 100 29345 zero yes
run 2000
Loop time of 51.7714 on 1 procs for 2000 steps with 2000 atoms

next i
jump SELF loop_heating
variable i loop 151 260
variable Temp equal $i*10
variable Temp equal 225*10
fix 		1 all langevin 2250 2250 100 29345 zero yes
run 2000
Loop time of 51.9565 on 1 procs for 2000 steps with 2000 atoms

next i
jump SELF loop_heating
variable i loop 151 260
variable Temp equal $i*10
variable Temp equal 226*10
fix 		1 all langevin 2260 2260 100 29345 zero yes
run 2000
Loop time of 51.7316 on 1 procs for 2000 steps with 2000 atoms

next i
jump SELF loop_heating
variable i loop 151 260
variable Temp equal $i*10
variable Temp equal 227*10
fix 		1 all langevin 2270 2270 100 29345 zero yes
run 2000
Loop time of 51.6437 on 1 procs for 2000 steps with 2000 atoms

next i
jump SELF loop_heating
variable i loop 151 260
variable Temp equal $i*10
variable Temp equal 228*10
fix 		1 all langevin 2280 2280 100 29345 zero yes
run 2000
Loop time of 52.4205 on 1 procs for 2000 steps with 2000 atoms

next i
jump SELF loop_heating
variable i loop 151 260
variable Temp equal $i*10
variable Temp equal 229*10
fix 		1 all langevin 2290 2290 100 29345 zero yes
run 2000
Loop time of 52.6715 on 1 procs for 2000 steps with 2000 atoms

next i
jump SELF loop_heating
variable i loop 151 260
variable Temp equal $i*10
variable Temp equal 230*10
fix 		1 all langevin 2300 2300 100 29345 zero yes
run 2000
Loop time of 51.3351 on 1 procs for 2000 steps with 2000 atoms

next i
jump SELF loop_heating
variable i loop 151 260
variable Temp equal $i*10
variable Temp equal 231*10
fix 		1 all langevin 2310 2310 100 29345 zero yes
run 2000
Loop time of 51.5944 on 1 procs for 2000 steps with 2000 atoms

next i
jump SELF loop_heating
variable i loop 151 260
variable Temp equal $i*10
variable Temp equal 232*10
fix 		1 all langevin 2320 2320 100 29345 zero yes
run 2000
Loop time of 51.2262 on 1 procs for 2000 steps with 2000 atoms

next i
jump SELF loop_heating
variable i loop 151 260
variable Temp equal $i*10
variable Temp equal 233*10
fix 		1 all langevin 2330 2330 100 29345 zero yes
run 2000
Loop time of 51.7434 on 1 procs for 2000 steps with 2000 atoms

next i
jump SELF loop_heating
variable i loop 151 260
variable Temp equal $i*10
variable Temp equal 234*10
fix 		1 all langevin 2340 2340 100 29345 zero yes
run 2000
Loop time of 50.956 on 1 procs for 2000 steps with 2000 atoms

next i
jump SELF loop_heating
variable i loop 151 260
variable Temp equal $i*10
variable Temp equal 235*10
fix 		1 all langevin 2350 2350 100 29345 zero yes
run 2000
Loop time of 51.1698 on 1 procs for 2000 steps with 2000 atoms

next i
jump SELF loop_heating
variable i loop 151 260
variable Temp equal $i*10
variable Temp equal 236*10
fix 		1 all langevin 2360 2360 100 29345 zero yes
run 2000
Loop time of 51.4506 on 1 procs for 2000 steps with 2000 atoms

next i
jump SELF loop_heating
variable i loop 151 260
variable Temp equal $i*10
variable Temp equal 237*10
fix 		1 all langevin 2370 2370 100 29345 zero yes
run 2000
Loop time of 52.5014 on 1 procs for 2000 steps with 2000 atoms

next i
jump SELF loop_heating
variable i loop 151 260
variable Temp equal $i*10
variable Temp equal 238*10
fix 		1 all langevin 2380 2380 100 29345 zero yes
run 2000
Loop time of 51.4917 on 1 procs for 2000 steps with 2000 atoms

next i
jump SELF loop_heating
variable i loop 151 260
variable Temp equal $i*10
variable Temp equal 239*10
fix 		1 all langevin 2390 2390 100 29345 zero yes
run 2000
Loop time of 50.9474 on 1 procs for 2000 steps with 2000 atoms

next i
jump SELF loop_heating
variable i loop 151 260
variable Temp equal $i*10
variable Temp equal 240*10
fix 		1 all langevin 2400 2400 100 29345 zero yes
run 2000
Loop time of 50.7987 on 1 procs for 2000 steps with 2000 atoms

next i
jump SELF loop_heating
variable i loop 151 260
variable Temp equal $i*10
variable Temp equal 241*10
fix 		1 all langevin 2410 2410 100 29345 zero yes
run 2000
Loop time of 50.8381 on 1 procs for 2000 steps with 2000 atoms

next i
jump SELF loop_heating
variable i loop 151 260
variable Temp equal $i*10
variable Temp equal 242*10
fix 		1 all langevin 2420 2420 100 29345 zero yes
run 2000
Loop time of 50.6222 on 1 procs for 2000 steps with 2000 atoms

next i
jump SELF loop_heating
variable i loop 151 260
variable Temp equal $i*10
variable Temp equal 243*10
fix 		1 all langevin 2430 2430 100 29345 zero yes
run 2000
Loop time of 51.0675 on 1 procs for 2000 steps with 2000 atoms

next i
jump SELF loop_heating
variable i loop 151 260
variable Temp equal $i*10
variable Temp equal 244*10
fix 		1 all langevin 2440 2440 100 29345 zero yes
run 2000
Loop time of 50.5393 on 1 procs for 2000 steps with 2000 atoms

next i
jump SELF loop_heating
variable i loop 151 260
variable Temp equal $i*10
variable Temp equal 245*10
fix 		1 all langevin 2450 2450 100 29345 zero yes
run 2000
Loop time of 50.8055 on 1 procs for 2000 steps with 2000 atoms

next i
jump SELF loop_heating
variable i loop 151 260
variable Temp equal $i*10
variable Temp equal 246*10
fix 		1 all langevin 2460 2460 100 29345 zero yes
run 2000
Loop time of 50.7078 on 1 procs for 2000 steps with 2000 atoms

next i
jump SELF loop_heating
variable i loop 151 260
variable Temp equal $i*10
variable Temp equal 247*10
fix 		1 all langevin 2470 2470 100 29345 zero yes
run 2000
Loop time of 50.6794 on 1 procs for 2000 steps with 2000 atoms

next i
jump SELF loop_heating
variable i loop 151 260
variable Temp equal $i*10
variable Temp equal 248*10
fix 		1 all langevin 2480 2480 100 29345 zero yes
run 2000
Loop time of 51.0565 on 1 procs for 2000 steps with 2000 atoms

next i
jump SELF loop_heating
variable i loop 151 260
variable Temp equal $i*10
variable Temp equal 249*10
fix 		1 all langevin 2490 2490 100 29345 zero yes
run 2000
Loop time of 50.3757 on 1 procs for 2000 steps with 2000 atoms

next i
jump SELF loop_heating
variable i loop 151 260
variable Temp equal $i*10
variable Temp equal 250*10
fix 		1 all langevin 2500 2500 100 29345 zero yes
run 2000
Loop time of 50.4629 on 1 procs for 2000 steps with 2000 atoms

next i
jump SELF loop_heating
variable i loop 151 260
variable Temp equal $i*10
variable Temp equal 251*10
fix 		1 all langevin 2510 2510 100 29345 zero yes
run 2000
Loop time of 50.23 on 1 procs for 2000 steps with 2000 atoms

next i
jump SELF loop_heating
variable i loop 151 260
variable Temp equal $i*10
variable Temp equal 252*10
fix 		1 all langevin 2520 2520 100 29345 zero yes
run 2000
Loop time of 50.788 on 1 procs for 2000 steps with 2000 atoms

next i
jump SELF loop_heating
variable i loop 151 260
variable Temp equal $i*10
variable Temp equal 253*10
fix 		1 all langevin 2530 2530 100 29345 zero yes
run 2000
Loop time of 50.3323 on 1 procs for 2000 steps with 2000 atoms

next i
jump SELF loop_heating
variable i loop 151 260
variable Temp equal $i*10
variable Temp equal 254*10
fix 		1 all langevin 2540 2540 100 29345 zero yes
run 2000
Loop time of 50.5737 on 1 procs for 2000 steps with 2000 atoms

next i
jump SELF loop_heating
variable i loop 151 260
variable Temp equal $i*10
variable Temp equal 255*10
fix 		1 all langevin 2550 2550 100 29345 zero yes
run 2000
Loop time of 50.18 on 1 procs for 2000 steps with 2000 atoms

next i
jump SELF loop_heating
variable i loop 151 260
variable Temp equal $i*10
variable Temp equal 256*10
fix 		1 all langevin 2560 2560 100 29345 zero yes
run 2000
Loop time of 50.2022 on 1 procs for 2000 steps with 2000 atoms

next i
jump SELF loop_heating
variable i loop 151 260
variable Temp equal $i*10
variable Temp equal 257*10
fix 		1 all langevin 2570 2570 100 29345 zero yes
run 2000
Loop time of 50.4005 on 1 procs for 2000 steps with 2000 atoms

next i
jump SELF loop_heating
variable i loop 151 260
variable Temp equal $i*10
variable Temp equal 258*10
fix 		1 all langevin 2580 2580 100 29345 zero yes
run 2000
Loop time of 50.2504 on 1 procs for 2000 steps with 2000 atoms

next i
jump SELF loop_heating
variable i loop 151 260
variable Temp equal $i*10
variable Temp equal 259*10
fix 		1 all langevin 2590 2590 100 29345 zero yes
run 2000
Loop time of 50.1 on 1 procs for 2000 steps with 2000 atoms

next i
jump SELF loop_heating
variable i loop 151 260
variable Temp equal $i*10
variable Temp equal 260*10
fix 		1 all langevin 2600 2600 100 29345 zero yes
run 2000
Loop time of 49.9516 on 1 procs for 2000 steps with 2000 atoms

next i
jump SELF loop_heating

label loop_cooling
variable i loop 1 200
variable Temp equal (260-$i)*10
variable Temp equal (260-1)*10
fix 		1 all langevin 2590 2590 100 29345 zero yes
run 2000
Loop time of 50.2038 on 1 procs for 2000 steps with 2000 atoms

next i
jump SELF loop_cooling
variable i loop 1 200
variable Temp equal (260-$i)*10
variable Temp equal (260-2)*10
fix 		1 all langevin 2580 2580 100 29345 zero yes
run 2000
Loop time of 50.3022 on 1 procs for 2000 steps with 2000 atoms

next i
jump SELF loop_cooling
variable i loop 1 200
variable Temp equal (260-$i)*10
variable Temp equal (260-3)*10
fix 		1 all langevin 2570 2570 100 29345 zero yes
run 2000
Loop time of 50.9746 on 1 procs for 2000 steps with 2000 atoms

next i
jump SELF loop_cooling
variable i loop 1 200
variable Temp equal (260-$i)*10
variable Temp equal (260-4)*10
fix 		1 all langevin 2560 2560 100 29345 zero yes
run 2000
Loop time of 50.2208 on 1 procs for 2000 steps with 2000 atoms

next i
jump SELF loop_cooling
variable i loop 1 200
variable Temp equal (260-$i)*10
variable Temp equal (260-5)*10
fix 		1 all langevin 2550 2550 100 29345 zero yes
run 2000
Loop time of 50.4034 on 1 procs for 2000 steps with 2000 atoms

next i
jump SELF loop_cooling
variable i loop 1 200
variable Temp equal (260-$i)*10
variable Temp equal (260-6)*10
fix 		1 all langevin 2540 2540 100 29345 zero yes
run 2000
Loop time of 50.3673 on 1 procs for 2000 steps with 2000 atoms

next i
jump SELF loop_cooling
variable i loop 1 200
variable Temp equal (260-$i)*10
variable Temp equal (260-7)*10
fix 		1 all langevin 2530 2530 100 29345 zero yes
run 2000
Loop time of 50.132 on 1 procs for 2000 steps with 2000 atoms

next i
jump SELF loop_cooling
variable i loop 1 200
variable Temp equal (260-$i)*10
variable Temp equal (260-8)*10
fix 		1 all langevin 2520 2520 100 29345 zero yes
run 2000
Loop time of 50.4469 on 1 procs for 2000 steps with 2000 atoms

next i
jump SELF loop_cooling
variable i loop 1 200
variable Temp equal (260-$i)*10
variable Temp equal (260-9)*10
fix 		1 all langevin 2510 2510 100 29345 zero yes
run 2000
Loop time of 50.426 on 1 procs for 2000 steps with 2000 atoms

next i
jump SELF loop_cooling
variable i loop 1 200
variable Temp equal (260-$i)*10
variable Temp equal (260-10)*10
fix 		1 all langevin 2500 2500 100 29345 zero yes
run 2000
Loop time of 50.4416 on 1 procs for 2000 steps with 2000 atoms

next i
jump SELF loop_cooling
variable i loop 1 200
variable Temp equal (260-$i)*10
variable Temp equal (260-11)*10
fix 		1 all langevin 2490 2490 100 29345 zero yes
run 2000
Loop time of 50.458 on 1 procs for 2000 steps with 2000 atoms

next i
jump SELF loop_cooling
variable i loop 1 200
variable Temp equal (260-$i)*10
variable Temp equal (260-12)*10
fix 		1 all langevin 2480 2480 100 29345 zero yes
run 2000
Loop time of 50.4768 on 1 procs for 2000 steps with 2000 atoms

next i
jump SELF loop_cooling
variable i loop 1 200
variable Temp equal (260-$i)*10
variable Temp equal (260-13)*10
fix 		1 all langevin 2470 2470 100 29345 zero yes
run 2000
Loop time of 50.8314 on 1 procs for 2000 steps with 2000 atoms

next i
jump SELF loop_cooling
variable i loop 1 200
variable Temp equal (260-$i)*10
variable Temp equal (260-14)*10
fix 		1 all langevin 2460 2460 100 29345 zero yes
run 2000
Loop time of 50.0595 on 1 procs for 2000 steps with 2000 atoms

next i
jump SELF loop_cooling
variable i loop 1 200
variable Temp equal (260-$i)*10
variable Temp equal (260-15)*10
fix 		1 all langevin 2450 2450 100 29345 zero yes
run 2000
Loop time of 50.5686 on 1 procs for 2000 steps with 2000 atoms

next i
jump SELF loop_cooling
variable i loop 1 200
variable Temp equal (260-$i)*10
variable Temp equal (260-16)*10
fix 		1 all langevin 2440 2440 100 29345 zero yes
run 2000
Loop time of 50.6465 on 1 procs for 2000 steps with 2000 atoms

next i
jump SELF loop_cooling
variable i loop 1 200
variable Temp equal (260-$i)*10
variable Temp equal (260-17)*10
fix 		1 all langevin 2430 2430 100 29345 zero yes
run 2000
Loop time of 50.3436 on 1 procs for 2000 steps with 2000 atoms

next i
jump SELF loop_cooling
variable i loop 1 200
variable Temp equal (260-$i)*10
variable Temp equal (260-18)*10
fix 		1 all langevin 2420 2420 100 29345 zero yes
run 2000
Loop time of 50.6007 on 1 procs for 2000 steps with 2000 atoms

next i
jump SELF loop_cooling
variable i loop 1 200
variable Temp equal (260-$i)*10
variable Temp equal (260-19)*10
fix 		1 all langevin 2410 2410 100 29345 zero yes
run 2000
Loop time of 50.5447 on 1 procs for 2000 steps with 2000 atoms

next i
jump SELF loop_cooling
variable i loop 1 200
variable Temp equal (260-$i)*10
variable Temp equal (260-20)*10
fix 		1 all langevin 2400 2400 100 29345 zero yes
run 2000
Loop time of 51.0513 on 1 procs for 2000 steps with 2000 atoms

next i
jump SELF loop_cooling
variable i loop 1 200
variable Temp equal (260-$i)*10
variable Temp equal (260-21)*10
fix 		1 all langevin 2390 2390 100 29345 zero yes
run 2000
Loop time of 50.744 on 1 procs for 2000 steps with 2000 atoms

next i
jump SELF loop_cooling
variable i loop 1 200
variable Temp equal (260-$i)*10
variable Temp equal (260-22)*10
fix 		1 all langevin 2380 2380 100 29345 zero yes
run 2000
Loop time of 50.5206 on 1 procs for 2000 steps with 2000 atoms

next i
jump SELF loop_cooling
variable i loop 1 200
variable Temp equal (260-$i)*10
variable Temp equal (260-23)*10
fix 		1 all langevin 2370 2370 100 29345 zero yes
run 2000
Loop time of 50.7862 on 1 procs for 2000 steps with 2000 atoms

next i
jump SELF loop_cooling
variable i loop 1 200
variable Temp equal (260-$i)*10
variable Temp equal (260-24)*10
fix 		1 all langevin 2360 2360 100 29345 zero yes
run 2000
Loop time of 50.4217 on 1 procs for 2000 steps with 2000 atoms

next i
jump SELF loop_cooling
variable i loop 1 200
variable Temp equal (260-$i)*10
variable Temp equal (260-25)*10
fix 		1 all langevin 2350 2350 100 29345 zero yes
run 2000
Loop time of 50.795 on 1 procs for 2000 steps with 2000 atoms

next i
jump SELF loop_cooling
variable i loop 1 200
variable Temp equal (260-$i)*10
variable Temp equal (260-26)*10
fix 		1 all langevin 2340 2340 100 29345 zero yes
run 2000
Loop time of 50.6099 on 1 procs for 2000 steps with 2000 atoms

next i
jump SELF loop_cooling
variable i loop 1 200
variable Temp equal (260-$i)*10
variable Temp equal (260-27)*10
fix 		1 all langevin 2330 2330 100 29345 zero yes
run 2000
Loop time of 50.8805 on 1 procs for 2000 steps with 2000 atoms

next i
jump SELF loop_cooling
variable i loop 1 200
variable Temp equal (260-$i)*10
variable Temp equal (260-28)*10
fix 		1 all langevin 2320 2320 100 29345 zero yes
run 2000
Loop time of 49.9038 on 1 procs for 2000 steps with 2000 atoms

next i
jump SELF loop_cooling
variable i loop 1 200
variable Temp equal (260-$i)*10
variable Temp equal (260-29)*10
fix 		1 all langevin 2310 2310 100 29345 zero yes
run 2000
Loop time of 48.3897 on 1 procs for 2000 steps with 2000 atoms

next i
jump SELF loop_cooling
variable i loop 1 200
variable Temp equal (260-$i)*10
variable Temp equal (260-30)*10
fix 		1 all langevin 2300 2300 100 29345 zero yes
run 2000
Loop time of 48.3634 on 1 procs for 2000 steps with 2000 atoms

next i
jump SELF loop_cooling
variable i loop 1 200
variable Temp equal (260-$i)*10
variable Temp equal (260-31)*10
fix 		1 all langevin 2290 2290 100 29345 zero yes
run 2000
Loop time of 48.3612 on 1 procs for 2000 steps with 2000 atoms

next i
jump SELF loop_cooling
variable i loop 1 200
variable Temp equal (260-$i)*10
variable Temp equal (260-32)*10
fix 		1 all langevin 2280 2280 100 29345 zero yes
run 2000
Loop time of 48.629 on 1 procs for 2000 steps with 2000 atoms

next i
jump SELF loop_cooling
variable i loop 1 200
variable Temp equal (260-$i)*10
variable Temp equal (260-33)*10
fix 		1 all langevin 2270 2270 100 29345 zero yes
run 2000
Loop time of 48.6737 on 1 procs for 2000 steps with 2000 atoms

next i
jump SELF loop_cooling
variable i loop 1 200
variable Temp equal (260-$i)*10
variable Temp equal (260-34)*10
fix 		1 all langevin 2260 2260 100 29345 zero yes
run 2000
Loop time of 48.4932 on 1 procs for 2000 steps with 2000 atoms

next i
jump SELF loop_cooling
variable i loop 1 200
variable Temp equal (260-$i)*10
variable Temp equal (260-35)*10
fix 		1 all langevin 2250 2250 100 29345 zero yes
run 2000
Loop time of 48.4168 on 1 procs for 2000 steps with 2000 atoms

next i
jump SELF loop_cooling
variable i loop 1 200
variable Temp equal (260-$i)*10
variable Temp equal (260-36)*10
fix 		1 all langevin 2240 2240 100 29345 zero yes
run 2000
Loop time of 48.456 on 1 procs for 2000 steps with 2000 atoms

next i
jump SELF loop_cooling
variable i loop 1 200
variable Temp equal (260-$i)*10
variable Temp equal (260-37)*10
fix 		1 all langevin 2230 2230 100 29345 zero yes
run 2000
Loop time of 49.0708 on 1 procs for 2000 steps with 2000 atoms

next i
jump SELF loop_cooling
variable i loop 1 200
variable Temp equal (260-$i)*10
variable Temp equal (260-38)*10
fix 		1 all langevin 2220 2220 100 29345 zero yes
run 2000
Loop time of 48.5149 on 1 procs for 2000 steps with 2000 atoms

next i
jump SELF loop_cooling
variable i loop 1 200
variable Temp equal (260-$i)*10
variable Temp equal (260-39)*10
fix 		1 all langevin 2210 2210 100 29345 zero yes
run 2000
Loop time of 48.5956 on 1 procs for 2000 steps with 2000 atoms

next i
jump SELF loop_cooling
variable i loop 1 200
variable Temp equal (260-$i)*10
variable Temp equal (260-40)*10
fix 		1 all langevin 2200 2200 100 29345 zero yes
run 2000
Loop time of 48.7479 on 1 procs for 2000 steps with 2000 atoms

next i
jump SELF loop_cooling
variable i loop 1 200
variable Temp equal (260-$i)*10
variable Temp equal (260-41)*10
fix 		1 all langevin 2190 2190 100 29345 zero yes
run 2000
Loop time of 48.6618 on 1 procs for 2000 steps with 2000 atoms

next i
jump SELF loop_cooling
variable i loop 1 200
variable Temp equal (260-$i)*10
variable Temp equal (260-42)*10
fix 		1 all langevin 2180 2180 100 29345 zero yes
run 2000
Loop time of 49.0241 on 1 procs for 2000 steps with 2000 atoms

next i
jump SELF loop_cooling
variable i loop 1 200
variable Temp equal (260-$i)*10
variable Temp equal (260-43)*10
fix 		1 all langevin 2170 2170 100 29345 zero yes
run 2000
Loop time of 49.06 on 1 procs for 2000 steps with 2000 atoms

next i
jump SELF loop_cooling
variable i loop 1 200
variable Temp equal (260-$i)*10
variable Temp equal (260-44)*10
fix 		1 all langevin 2160 2160 100 29345 zero yes
run 2000
Loop time of 49.1237 on 1 procs for 2000 steps with 2000 atoms

next i
jump SELF loop_cooling
variable i loop 1 200
variable Temp equal (260-$i)*10
variable Temp equal (260-45)*10
fix 		1 all langevin 2150 2150 100 29345 zero yes
run 2000
Loop time of 49.2756 on 1 procs for 2000 steps with 2000 atoms

next i
jump SELF loop_cooling
variable i loop 1 200
variable Temp equal (260-$i)*10
variable Temp equal (260-46)*10
fix 		1 all langevin 2140 2140 100 29345 zero yes
run 2000
Loop time of 48.9634 on 1 procs for 2000 steps with 2000 atoms

next i
jump SELF loop_cooling
variable i loop 1 200
variable Temp equal (260-$i)*10
variable Temp equal (260-47)*10
fix 		1 all langevin 2130 2130 100 29345 zero yes
run 2000
Loop time of 49.104 on 1 procs for 2000 steps with 2000 atoms

next i
jump SELF loop_cooling
variable i loop 1 200
variable Temp equal (260-$i)*10
variable Temp equal (260-48)*10
fix 		1 all langevin 2120 2120 100 29345 zero yes
run 2000
Loop time of 49.2019 on 1 procs for 2000 steps with 2000 atoms

next i
jump SELF loop_cooling
variable i loop 1 200
variable Temp equal (260-$i)*10
variable Temp equal (260-49)*10
fix 		1 all langevin 2110 2110 100 29345 zero yes
run 2000
Loop time of 48.6521 on 1 procs for 2000 steps with 2000 atoms

next i
jump SELF loop_cooling
variable i loop 1 200
variable Temp equal (260-$i)*10
variable Temp equal (260-50)*10
fix 		1 all langevin 2100 2100 100 29345 zero yes
run 2000
Loop time of 48.9708 on 1 procs for 2000 steps with 2000 atoms

next i
jump SELF loop_cooling
variable i loop 1 200
variable Temp equal (260-$i)*10
variable Temp equal (260-51)*10
fix 		1 all langevin 2090 2090 100 29345 zero yes
run 2000
Loop time of 49.6076 on 1 procs for 2000 steps with 2000 atoms

next i
jump SELF loop_cooling
variable i loop 1 200
variable Temp equal (260-$i)*10
variable Temp equal (260-52)*10
fix 		1 all langevin 2080 2080 100 29345 zero yes
run 2000
Loop time of 49.6162 on 1 procs for 2000 steps with 2000 atoms

next i
jump SELF loop_cooling
variable i loop 1 200
variable Temp equal (260-$i)*10
variable Temp equal (260-53)*10
fix 		1 all langevin 2070 2070 100 29345 zero yes
run 2000
Loop time of 49.1781 on 1 procs for 2000 steps with 2000 atoms

next i
jump SELF loop_cooling
variable i loop 1 200
variable Temp equal (260-$i)*10
variable Temp equal (260-54)*10
fix 		1 all langevin 2060 2060 100 29345 zero yes
run 2000
Loop time of 49.2554 on 1 procs for 2000 steps with 2000 atoms

next i
jump SELF loop_cooling
variable i loop 1 200
variable Temp equal (260-$i)*10
variable Temp equal (260-55)*10
fix 		1 all langevin 2050 2050 100 29345 zero yes
run 2000
Loop time of 49.2905 on 1 procs for 2000 steps with 2000 atoms

next i
jump SELF loop_cooling
variable i loop 1 200
variable Temp equal (260-$i)*10
variable Temp equal (260-56)*10
fix 		1 all langevin 2040 2040 100 29345 zero yes
run 2000
Loop time of 49.0641 on 1 procs for 2000 steps with 2000 atoms

next i
jump SELF loop_cooling
variable i loop 1 200
variable Temp equal (260-$i)*10
variable Temp equal (260-57)*10
fix 		1 all langevin 2030 2030 100 29345 zero yes
run 2000
Loop time of 49.3033 on 1 procs for 2000 steps with 2000 atoms

next i
jump SELF loop_cooling
variable i loop 1 200
variable Temp equal (260-$i)*10
variable Temp equal (260-58)*10
fix 		1 all langevin 2020 2020 100 29345 zero yes
run 2000
Loop time of 49.3507 on 1 procs for 2000 steps with 2000 atoms

next i
jump SELF loop_cooling
variable i loop 1 200
variable Temp equal (260-$i)*10
variable Temp equal (260-59)*10
fix 		1 all langevin 2010 2010 100 29345 zero yes
run 2000
Loop time of 48.8511 on 1 procs for 2000 steps with 2000 atoms

next i
jump SELF loop_cooling
variable i loop 1 200
variable Temp equal (260-$i)*10
variable Temp equal (260-60)*10
fix 		1 all langevin 2000 2000 100 29345 zero yes
run 2000
Loop time of 49.1688 on 1 procs for 2000 steps with 2000 atoms

next i
jump SELF loop_cooling
variable i loop 1 200
variable Temp equal (260-$i)*10
variable Temp equal (260-61)*10
fix 		1 all langevin 1990 1990 100 29345 zero yes
run 2000
Loop time of 49.6303 on 1 procs for 2000 steps with 2000 atoms

next i
jump SELF loop_cooling
variable i loop 1 200
variable Temp equal (260-$i)*10
variable Temp equal (260-62)*10
fix 		1 all langevin 1980 1980 100 29345 zero yes
run 2000
Loop time of 49.3832 on 1 procs for 2000 steps with 2000 atoms

next i
jump SELF loop_cooling
variable i loop 1 200
variable Temp equal (260-$i)*10
variable Temp equal (260-63)*10
fix 		1 all langevin 1970 1970 100 29345 zero yes
run 2000
Loop time of 49.7428 on 1 procs for 2000 steps with 2000 atoms

next i
jump SELF loop_cooling
variable i loop 1 200
variable Temp equal (260-$i)*10
variable Temp equal (260-64)*10
fix 		1 all langevin 1960 1960 100 29345 zero yes
run 2000
Loop time of 49.2974 on 1 procs for 2000 steps with 2000 atoms

next i
jump SELF loop_cooling
variable i loop 1 200
variable Temp equal (260-$i)*10
variable Temp equal (260-65)*10
fix 		1 all langevin 1950 1950 100 29345 zero yes
run 2000
Loop time of 49.6082 on 1 procs for 2000 steps with 2000 atoms

next i
jump SELF loop_cooling
variable i loop 1 200
variable Temp equal (260-$i)*10
variable Temp equal (260-66)*10
fix 		1 all langevin 1940 1940 100 29345 zero yes
run 2000
Loop time of 49.2297 on 1 procs for 2000 steps with 2000 atoms

next i
jump SELF loop_cooling
variable i loop 1 200
variable Temp equal (260-$i)*10
variable Temp equal (260-67)*10
fix 		1 all langevin 1930 1930 100 29345 zero yes
run 2000
Loop time of 49.5928 on 1 procs for 2000 steps with 2000 atoms

next i
jump SELF loop_cooling
variable i loop 1 200
variable Temp equal (260-$i)*10
variable Temp equal (260-68)*10
fix 		1 all langevin 1920 1920 100 29345 zero yes
run 2000
Loop time of 50.0864 on 1 procs for 2000 steps with 2000 atoms

next i
jump SELF loop_cooling
variable i loop 1 200
variable Temp equal (260-$i)*10
variable Temp equal (260-69)*10
fix 		1 all langevin 1910 1910 100 29345 zero yes
run 2000
Loop time of 49.8399 on 1 procs for 2000 steps with 2000 atoms

next i
jump SELF loop_cooling
variable i loop 1 200
variable Temp equal (260-$i)*10
variable Temp equal (260-70)*10
fix 		1 all langevin 1900 1900 100 29345 zero yes
run 2000
Loop time of 49.6416 on 1 procs for 2000 steps with 2000 atoms

next i
jump SELF loop_cooling
variable i loop 1 200
variable Temp equal (260-$i)*10
variable Temp equal (260-71)*10
fix 		1 all langevin 1890 1890 100 29345 zero yes
run 2000
Loop time of 49.5444 on 1 procs for 2000 steps with 2000 atoms

next i
jump SELF loop_cooling
variable i loop 1 200
variable Temp equal (260-$i)*10
variable Temp equal (260-72)*10
fix 		1 all langevin 1880 1880 100 29345 zero yes
run 2000
Loop time of 50.2054 on 1 procs for 2000 steps with 2000 atoms

next i
jump SELF loop_cooling
variable i loop 1 200
variable Temp equal (260-$i)*10
variable Temp equal (260-73)*10
fix 		1 all langevin 1870 1870 100 29345 zero yes
run 2000
Loop time of 50.0304 on 1 procs for 2000 steps with 2000 atoms

next i
jump SELF loop_cooling
variable i loop 1 200
variable Temp equal (260-$i)*10
variable Temp equal (260-74)*10
fix 		1 all langevin 1860 1860 100 29345 zero yes
run 2000
Loop time of 49.3444 on 1 procs for 2000 steps with 2000 atoms

next i
jump SELF loop_cooling
variable i loop 1 200
variable Temp equal (260-$i)*10
variable Temp equal (260-75)*10
fix 		1 all langevin 1850 1850 100 29345 zero yes
run 2000
Loop time of 49.7163 on 1 procs for 2000 steps with 2000 atoms

next i
jump SELF loop_cooling
variable i loop 1 200
variable Temp equal (260-$i)*10
variable Temp equal (260-76)*10
fix 		1 all langevin 1840 1840 100 29345 zero yes
run 2000
Loop time of 49.667 on 1 procs for 2000 steps with 2000 atoms

next i
jump SELF loop_cooling
variable i loop 1 200
variable Temp equal (260-$i)*10
variable Temp equal (260-77)*10
fix 		1 all langevin 1830 1830 100 29345 zero yes
run 2000
Loop time of 49.8551 on 1 procs for 2000 steps with 2000 atoms

next i
jump SELF loop_cooling
variable i loop 1 200
variable Temp equal (260-$i)*10
variable Temp equal (260-78)*10
fix 		1 all langevin 1820 1820 100 29345 zero yes
run 2000
Loop time of 49.5595 on 1 procs for 2000 steps with 2000 atoms

next i
jump SELF loop_cooling
variable i loop 1 200
variable Temp equal (260-$i)*10
variable Temp equal (260-79)*10
fix 		1 all langevin 1810 1810 100 29345 zero yes
run 2000
Loop time of 49.4996 on 1 procs for 2000 steps with 2000 atoms

next i
jump SELF loop_cooling
variable i loop 1 200
variable Temp equal (260-$i)*10
variable Temp equal (260-80)*10
fix 		1 all langevin 1800 1800 100 29345 zero yes
run 2000
Loop time of 49.669 on 1 procs for 2000 steps with 2000 atoms

next i
jump SELF loop_cooling
variable i loop 1 200
variable Temp equal (260-$i)*10
variable Temp equal (260-81)*10
fix 		1 all langevin 1790 1790 100 29345 zero yes
run 2000
Loop time of 49.9107 on 1 procs for 2000 steps with 2000 atoms

next i
jump SELF loop_cooling
variable i loop 1 200
variable Temp equal (260-$i)*10
variable Temp equal (260-82)*10
fix 		1 all langevin 1780 1780 100 29345 zero yes
run 2000
Loop time of 49.5908 on 1 procs for 2000 steps with 2000 atoms

next i
jump SELF loop_cooling
variable i loop 1 200
variable Temp equal (260-$i)*10
variable Temp equal (260-83)*10
fix 		1 all langevin 1770 1770 100 29345 zero yes
run 2000
Loop time of 49.7457 on 1 procs for 2000 steps with 2000 atoms

next i
jump SELF loop_cooling
variable i loop 1 200
variable Temp equal (260-$i)*10
variable Temp equal (260-84)*10
fix 		1 all langevin 1760 1760 100 29345 zero yes
run 2000
Loop time of 49.7074 on 1 procs for 2000 steps with 2000 atoms

next i
jump SELF loop_cooling
variable i loop 1 200
variable Temp equal (260-$i)*10
variable Temp equal (260-85)*10
fix 		1 all langevin 1750 1750 100 29345 zero yes
run 2000
Loop time of 50.1285 on 1 procs for 2000 steps with 2000 atoms

next i
jump SELF loop_cooling
variable i loop 1 200
variable Temp equal (260-$i)*10
variable Temp equal (260-86)*10
fix 		1 all langevin 1740 1740 100 29345 zero yes
run 2000
Loop time of 50.1416 on 1 procs for 2000 steps with 2000 atoms

next i
jump SELF loop_cooling
variable i loop 1 200
variable Temp equal (260-$i)*10
variable Temp equal (260-87)*10
fix 		1 all langevin 1730 1730 100 29345 zero yes
run 2000
Loop time of 49.6835 on 1 procs for 2000 steps with 2000 atoms

next i
jump SELF loop_cooling
variable i loop 1 200
variable Temp equal (260-$i)*10
variable Temp equal (260-88)*10
fix 		1 all langevin 1720 1720 100 29345 zero yes
run 2000
Loop time of 50.1144 on 1 procs for 2000 steps with 2000 atoms

next i
jump SELF loop_cooling
variable i loop 1 200
variable Temp equal (260-$i)*10
variable Temp equal (260-89)*10
fix 		1 all langevin 1710 1710 100 29345 zero yes
run 2000
Loop time of 49.8494 on 1 procs for 2000 steps with 2000 atoms

next i
jump SELF loop_cooling
variable i loop 1 200
variable Temp equal (260-$i)*10
variable Temp equal (260-90)*10
fix 		1 all langevin 1700 1700 100 29345 zero yes
run 2000
Loop time of 49.9204 on 1 procs for 2000 steps with 2000 atoms

next i
jump SELF loop_cooling
variable i loop 1 200
variable Temp equal (260-$i)*10
variable Temp equal (260-91)*10
fix 		1 all langevin 1690 1690 100 29345 zero yes
run 2000
Loop time of 49.882 on 1 procs for 2000 steps with 2000 atoms

next i
jump SELF loop_cooling
variable i loop 1 200
variable Temp equal (260-$i)*10
variable Temp equal (260-92)*10
fix 		1 all langevin 1680 1680 100 29345 zero yes
run 2000
Loop time of 49.8012 on 1 procs for 2000 steps with 2000 atoms

next i
jump SELF loop_cooling
variable i loop 1 200
variable Temp equal (260-$i)*10
variable Temp equal (260-93)*10
fix 		1 all langevin 1670 1670 100 29345 zero yes
run 2000
Loop time of 50.3727 on 1 procs for 2000 steps with 2000 atoms

next i
jump SELF loop_cooling
variable i loop 1 200
variable Temp equal (260-$i)*10
variable Temp equal (260-94)*10
fix 		1 all langevin 1660 1660 100 29345 zero yes
run 2000
Loop time of 50.2197 on 1 procs for 2000 steps with 2000 atoms

next i
jump SELF loop_cooling
variable i loop 1 200
variable Temp equal (260-$i)*10
variable Temp equal (260-95)*10
fix 		1 all langevin 1650 1650 100 29345 zero yes
run 2000
Loop time of 50.8143 on 1 procs for 2000 steps with 2000 atoms

next i
jump SELF loop_cooling
variable i loop 1 200
variable Temp equal (260-$i)*10
variable Temp equal (260-96)*10
fix 		1 all langevin 1640 1640 100 29345 zero yes
run 2000
Loop time of 50.5245 on 1 procs for 2000 steps with 2000 atoms

next i
jump SELF loop_cooling
variable i loop 1 200
variable Temp equal (260-$i)*10
variable Temp equal (260-97)*10
fix 		1 all langevin 1630 1630 100 29345 zero yes
run 2000
Loop time of 49.9675 on 1 procs for 2000 steps with 2000 atoms

next i
jump SELF loop_cooling
variable i loop 1 200
variable Temp equal (260-$i)*10
variable Temp equal (260-98)*10
fix 		1 all langevin 1620 1620 100 29345 zero yes
run 2000
Loop time of 49.9274 on 1 procs for 2000 steps with 2000 atoms

next i
jump SELF loop_cooling
variable i loop 1 200
variable Temp equal (260-$i)*10
variable Temp equal (260-99)*10
fix 		1 all langevin 1610 1610 100 29345 zero yes
run 2000
Loop time of 49.9553 on 1 procs for 2000 steps with 2000 atoms

next i
jump SELF loop_cooling
variable i loop 1 200
variable Temp equal (260-$i)*10
variable Temp equal (260-100)*10
fix 		1 all langevin 1600 1600 100 29345 zero yes
run 2000
Loop time of 49.8572 on 1 procs for 2000 steps with 2000 atoms

next i
jump SELF loop_cooling
variable i loop 1 200
variable Temp equal (260-$i)*10
variable Temp equal (260-101)*10
fix 		1 all langevin 1590 1590 100 29345 zero yes
run 2000
Loop time of 49.8388 on 1 procs for 2000 steps with 2000 atoms

next i
jump SELF loop_cooling
variable i loop 1 200
variable Temp equal (260-$i)*10
variable Temp equal (260-102)*10
fix 		1 all langevin 1580 1580 100 29345 zero yes
run 2000
Loop time of 50.6617 on 1 procs for 2000 steps with 2000 atoms

next i
jump SELF loop_cooling
variable i loop 1 200
variable Temp equal (260-$i)*10
variable Temp equal (260-103)*10
fix 		1 all langevin 1570 1570 100 29345 zero yes
run 2000
Loop time of 49.9077 on 1 procs for 2000 steps with 2000 atoms

next i
jump SELF loop_cooling
variable i loop 1 200
variable Temp equal (260-$i)*10
variable Temp equal (260-104)*10
fix 		1 all langevin 1560 1560 100 29345 zero yes
run 2000
Loop time of 50.6004 on 1 procs for 2000 steps with 2000 atoms

next i
jump SELF loop_cooling
variable i loop 1 200
variable Temp equal (260-$i)*10
variable Temp equal (260-105)*10
fix 		1 all langevin 1550 1550 100 29345 zero yes
run 2000
Loop time of 50.1313 on 1 procs for 2000 steps with 2000 atoms

next i
jump SELF loop_cooling
variable i loop 1 200
variable Temp equal (260-$i)*10
variable Temp equal (260-106)*10
fix 		1 all langevin 1540 1540 100 29345 zero yes
run 2000
Loop time of 50.6876 on 1 procs for 2000 steps with 2000 atoms

next i
jump SELF loop_cooling
variable i loop 1 200
variable Temp equal (260-$i)*10
variable Temp equal (260-107)*10
fix 		1 all langevin 1530 1530 100 29345 zero yes
run 2000
Loop time of 50.8059 on 1 procs for 2000 steps with 2000 atoms

next i
jump SELF loop_cooling
variable i loop 1 200
variable Temp equal (260-$i)*10
variable Temp equal (260-108)*10
fix 		1 all langevin 1520 1520 100 29345 zero yes
run 2000
Loop time of 50.6056 on 1 procs for 2000 steps with 2000 atoms

next i
jump SELF loop_cooling
variable i loop 1 200
variable Temp equal (260-$i)*10
variable Temp equal (260-109)*10
fix 		1 all langevin 1510 1510 100 29345 zero yes
run 2000
Loop time of 50.0831 on 1 procs for 2000 steps with 2000 atoms

next i
jump SELF loop_cooling
variable i loop 1 200
variable Temp equal (260-$i)*10
variable Temp equal (260-110)*10
fix 		1 all langevin 1500 1500 100 29345 zero yes
run 2000
Loop time of 50.4091 on 1 procs for 2000 steps with 2000 atoms

next i
jump SELF loop_cooling
variable i loop 1 200
variable Temp equal (260-$i)*10
variable Temp equal (260-111)*10
fix 		1 all langevin 1490 1490 100 29345 zero yes
run 2000
Loop time of 50.6575 on 1 procs for 2000 steps with 2000 atoms

next i
jump SELF loop_cooling
variable i loop 1 200
variable Temp equal (260-$i)*10
variable Temp equal (260-112)*10
fix 		1 all langevin 1480 1480 100 29345 zero yes
run 2000
Loop time of 50.631 on 1 procs for 2000 steps with 2000 atoms

next i
jump SELF loop_cooling
variable i loop 1 200
variable Temp equal (260-$i)*10
variable Temp equal (260-113)*10
fix 		1 all langevin 1470 1470 100 29345 zero yes
run 2000
Loop time of 50.3004 on 1 procs for 2000 steps with 2000 atoms

next i
jump SELF loop_cooling
variable i loop 1 200
variable Temp equal (260-$i)*10
variable Temp equal (260-114)*10
fix 		1 all langevin 1460 1460 100 29345 zero yes
run 2000
Loop time of 50.2627 on 1 procs for 2000 steps with 2000 atoms

next i
jump SELF loop_cooling
variable i loop 1 200
variable Temp equal (260-$i)*10
variable Temp equal (260-115)*10
fix 		1 all langevin 1450 1450 100 29345 zero yes
run 2000
Loop time of 50.0449 on 1 procs for 2000 steps with 2000 atoms

next i
jump SELF loop_cooling
variable i loop 1 200
variable Temp equal (260-$i)*10
variable Temp equal (260-116)*10
fix 		1 all langevin 1440 1440 100 29345 zero yes
run 2000
Loop time of 50.5251 on 1 procs for 2000 steps with 2000 atoms

next i
jump SELF loop_cooling
variable i loop 1 200
variable Temp equal (260-$i)*10
variable Temp equal (260-117)*10
fix 		1 all langevin 1430 1430 100 29345 zero yes
run 2000
Loop time of 50.3384 on 1 procs for 2000 steps with 2000 atoms

next i
jump SELF loop_cooling
variable i loop 1 200
variable Temp equal (260-$i)*10
variable Temp equal (260-118)*10
fix 		1 all langevin 1420 1420 100 29345 zero yes
run 2000
Loop time of 50.2999 on 1 procs for 2000 steps with 2000 atoms

next i
jump SELF loop_cooling
variable i loop 1 200
variable Temp equal (260-$i)*10
variable Temp equal (260-119)*10
fix 		1 all langevin 1410 1410 100 29345 zero yes
run 2000
Loop time of 50.0616 on 1 procs for 2000 steps with 2000 atoms

next i
jump SELF loop_cooling
variable i loop 1 200
variable Temp equal (260-$i)*10
variable Temp equal (260-120)*10
fix 		1 all langevin 1400 1400 100 29345 zero yes
run 2000
Loop time of 50.3938 on 1 procs for 2000 steps with 2000 atoms

next i
jump SELF loop_cooling
variable i loop 1 200
variable Temp equal (260-$i)*10
variable Temp equal (260-121)*10
fix 		1 all langevin 1390 1390 100 29345 zero yes
run 2000
Loop time of 50.3327 on 1 procs for 2000 steps with 2000 atoms

next i
jump SELF loop_cooling
variable i loop 1 200
variable Temp equal (260-$i)*10
variable Temp equal (260-122)*10
fix 		1 all langevin 1380 1380 100 29345 zero yes
run 2000
Loop time of 50.3304 on 1 procs for 2000 steps with 2000 atoms

next i
jump SELF loop_cooling
variable i loop 1 200
variable Temp equal (260-$i)*10
variable Temp equal (260-123)*10
fix 		1 all langevin 1370 1370 100 29345 zero yes
run 2000
Loop time of 49.9198 on 1 procs for 2000 steps with 2000 atoms

next i
jump SELF loop_cooling
variable i loop 1 200
variable Temp equal (260-$i)*10
variable Temp equal (260-124)*10
fix 		1 all langevin 1360 1360 100 29345 zero yes
run 2000
Loop time of 50.0396 on 1 procs for 2000 steps with 2000 atoms

next i
jump SELF loop_cooling
variable i loop 1 200
variable Temp equal (260-$i)*10
variable Temp equal (260-125)*10
fix 		1 all langevin 1350 1350 100 29345 zero yes
run 2000
Loop time of 50.4861 on 1 procs for 2000 steps with 2000 atoms

next i
jump SELF loop_cooling
variable i loop 1 200
variable Temp equal (260-$i)*10
variable Temp equal (260-126)*10
fix 		1 all langevin 1340 1340 100 29345 zero yes
run 2000
Loop time of 50.5855 on 1 procs for 2000 steps with 2000 atoms

next i
jump SELF loop_cooling
variable i loop 1 200
variable Temp equal (260-$i)*10
variable Temp equal (260-127)*10
fix 		1 all langevin 1330 1330 100 29345 zero yes
run 2000
Loop time of 50.7711 on 1 procs for 2000 steps with 2000 atoms

next i
jump SELF loop_cooling
variable i loop 1 200
variable Temp equal (260-$i)*10
variable Temp equal (260-128)*10
fix 		1 all langevin 1320 1320 100 29345 zero yes
run 2000
Loop time of 50.0498 on 1 procs for 2000 steps with 2000 atoms

next i
jump SELF loop_cooling
variable i loop 1 200
variable Temp equal (260-$i)*10
variable Temp equal (260-129)*10
fix 		1 all langevin 1310 1310 100 29345 zero yes
run 2000
Loop time of 50.1619 on 1 procs for 2000 steps with 2000 atoms

next i
jump SELF loop_cooling
variable i loop 1 200
variable Temp equal (260-$i)*10
variable Temp equal (260-130)*10
fix 		1 all langevin 1300 1300 100 29345 zero yes
run 2000
Loop time of 50.1223 on 1 procs for 2000 steps with 2000 atoms

next i
jump SELF loop_cooling
variable i loop 1 200
variable Temp equal (260-$i)*10
variable Temp equal (260-131)*10
fix 		1 all langevin 1290 1290 100 29345 zero yes
run 2000
Loop time of 50.52 on 1 procs for 2000 steps with 2000 atoms

next i
jump SELF loop_cooling
variable i loop 1 200
variable Temp equal (260-$i)*10
variable Temp equal (260-132)*10
fix 		1 all langevin 1280 1280 100 29345 zero yes
run 2000
Loop time of 50.8001 on 1 procs for 2000 steps with 2000 atoms

next i
jump SELF loop_cooling
variable i loop 1 200
variable Temp equal (260-$i)*10
variable Temp equal (260-133)*10
fix 		1 all langevin 1270 1270 100 29345 zero yes
run 2000
Loop time of 50.5934 on 1 procs for 2000 steps with 2000 atoms

next i
jump SELF loop_cooling
variable i loop 1 200
variable Temp equal (260-$i)*10
variable Temp equal (260-134)*10
fix 		1 all langevin 1260 1260 100 29345 zero yes
run 2000
Loop time of 50.7946 on 1 procs for 2000 steps with 2000 atoms

next i
jump SELF loop_cooling
variable i loop 1 200
variable Temp equal (260-$i)*10
variable Temp equal (260-135)*10
fix 		1 all langevin 1250 1250 100 29345 zero yes
run 2000
Loop time of 50.5096 on 1 procs for 2000 steps with 2000 atoms

next i
jump SELF loop_cooling
variable i loop 1 200
variable Temp equal (260-$i)*10
variable Temp equal (260-136)*10
fix 		1 all langevin 1240 1240 100 29345 zero yes
run 2000
Loop time of 50.708 on 1 procs for 2000 steps with 2000 atoms

next i
jump SELF loop_cooling
variable i loop 1 200
variable Temp equal (260-$i)*10
variable Temp equal (260-137)*10
fix 		1 all langevin 1230 1230 100 29345 zero yes
run 2000
Loop time of 50.767 on 1 procs for 2000 steps with 2000 atoms

next i
jump SELF loop_cooling
variable i loop 1 200
variable Temp equal (260-$i)*10
variable Temp equal (260-138)*10
fix 		1 all langevin 1220 1220 100 29345 zero yes
run 2000
Loop time of 50.5529 on 1 procs for 2000 steps with 2000 atoms

next i
jump SELF loop_cooling
variable i loop 1 200
variable Temp equal (260-$i)*10
variable Temp equal (260-139)*10
fix 		1 all langevin 1210 1210 100 29345 zero yes
run 2000
Loop time of 50.4235 on 1 procs for 2000 steps with 2000 atoms

next i
jump SELF loop_cooling
variable i loop 1 200
variable Temp equal (260-$i)*10
variable Temp equal (260-140)*10
fix 		1 all langevin 1200 1200 100 29345 zero yes
run 2000
Loop time of 50.5694 on 1 procs for 2000 steps with 2000 atoms

next i
jump SELF loop_cooling
variable i loop 1 200
variable Temp equal (260-$i)*10
variable Temp equal (260-141)*10
fix 		1 all langevin 1190 1190 100 29345 zero yes
run 2000
Loop time of 50.5522 on 1 procs for 2000 steps with 2000 atoms

next i
jump SELF loop_cooling
variable i loop 1 200
variable Temp equal (260-$i)*10
variable Temp equal (260-142)*10
fix 		1 all langevin 1180 1180 100 29345 zero yes
run 2000
Loop time of 50.4411 on 1 procs for 2000 steps with 2000 atoms

next i
jump SELF loop_cooling
variable i loop 1 200
variable Temp equal (260-$i)*10
variable Temp equal (260-143)*10
fix 		1 all langevin 1170 1170 100 29345 zero yes
run 2000
Loop time of 50.9284 on 1 procs for 2000 steps with 2000 atoms

next i
jump SELF loop_cooling
variable i loop 1 200
variable Temp equal (260-$i)*10
variable Temp equal (260-144)*10
fix 		1 all langevin 1160 1160 100 29345 zero yes
run 2000
Loop time of 50.6086 on 1 procs for 2000 steps with 2000 atoms

next i
jump SELF loop_cooling
variable i loop 1 200
variable Temp equal (260-$i)*10
variable Temp equal (260-145)*10
fix 		1 all langevin 1150 1150 100 29345 zero yes
run 2000
Loop time of 51.0107 on 1 procs for 2000 steps with 2000 atoms

next i
jump SELF loop_cooling
variable i loop 1 200
variable Temp equal (260-$i)*10
variable Temp equal (260-146)*10
fix 		1 all langevin 1140 1140 100 29345 zero yes
run 2000
Loop time of 50.6598 on 1 procs for 2000 steps with 2000 atoms

next i
jump SELF loop_cooling
variable i loop 1 200
variable Temp equal (260-$i)*10
variable Temp equal (260-147)*10
fix 		1 all langevin 1130 1130 100 29345 zero yes
run 2000
Loop time of 50.3365 on 1 procs for 2000 steps with 2000 atoms

next i
jump SELF loop_cooling
variable i loop 1 200
variable Temp equal (260-$i)*10
variable Temp equal (260-148)*10
fix 		1 all langevin 1120 1120 100 29345 zero yes
run 2000
Loop time of 50.3069 on 1 procs for 2000 steps with 2000 atoms

next i
jump SELF loop_cooling
variable i loop 1 200
variable Temp equal (260-$i)*10
variable Temp equal (260-149)*10
fix 		1 all langevin 1110 1110 100 29345 zero yes
run 2000
Loop time of 50.7904 on 1 procs for 2000 steps with 2000 atoms

next i
jump SELF loop_cooling
variable i loop 1 200
variable Temp equal (260-$i)*10
variable Temp equal (260-150)*10
fix 		1 all langevin 1100 1100 100 29345 zero yes
run 2000
Loop time of 50.9031 on 1 procs for 2000 steps with 2000 atoms

next i
jump SELF loop_cooling
variable i loop 1 200
variable Temp equal (260-$i)*10
variable Temp equal (260-151)*10
fix 		1 all langevin 1090 1090 100 29345 zero yes
run 2000
Loop time of 50.8699 on 1 procs for 2000 steps with 2000 atoms

next i
jump SELF loop_cooling
variable i loop 1 200
variable Temp equal (260-$i)*10
variable Temp equal (260-152)*10
fix 		1 all langevin 1080 1080 100 29345 zero yes
run 2000
Loop time of 50.4584 on 1 procs for 2000 steps with 2000 atoms

next i
jump SELF loop_cooling
variable i loop 1 200
variable Temp equal (260-$i)*10
variable Temp equal (260-153)*10
fix 		1 all langevin 1070 1070 100 29345 zero yes
run 2000
Loop time of 50.4726 on 1 procs for 2000 steps with 2000 atoms

next i
jump SELF loop_cooling
variable i loop 1 200
variable Temp equal (260-$i)*10
variable Temp equal (260-154)*10
fix 		1 all langevin 1060 1060 100 29345 zero yes
run 2000
Loop time of 50.8539 on 1 procs for 2000 steps with 2000 atoms

next i
jump SELF loop_cooling
variable i loop 1 200
variable Temp equal (260-$i)*10
variable Temp equal (260-155)*10
fix 		1 all langevin 1050 1050 100 29345 zero yes
run 2000
Loop time of 50.4523 on 1 procs for 2000 steps with 2000 atoms

next i
jump SELF loop_cooling
variable i loop 1 200
variable Temp equal (260-$i)*10
variable Temp equal (260-156)*10
fix 		1 all langevin 1040 1040 100 29345 zero yes
run 2000
Loop time of 50.6905 on 1 procs for 2000 steps with 2000 atoms

next i
jump SELF loop_cooling
variable i loop 1 200
variable Temp equal (260-$i)*10
variable Temp equal (260-157)*10
fix 		1 all langevin 1030 1030 100 29345 zero yes
run 2000
Loop time of 50.4386 on 1 procs for 2000 steps with 2000 atoms

next i
jump SELF loop_cooling
variable i loop 1 200
variable Temp equal (260-$i)*10
variable Temp equal (260-158)*10
fix 		1 all langevin 1020 1020 100 29345 zero yes
run 2000
Loop time of 50.6646 on 1 procs for 2000 steps with 2000 atoms

next i
jump SELF loop_cooling
variable i loop 1 200
variable Temp equal (260-$i)*10
variable Temp equal (260-159)*10
fix 		1 all langevin 1010 1010 100 29345 zero yes
run 2000
Loop time of 50.5444 on 1 procs for 2000 steps with 2000 atoms

next i
jump SELF loop_cooling
variable i loop 1 200
variable Temp equal (260-$i)*10
variable Temp equal (260-160)*10
fix 		1 all langevin 1000 1000 100 29345 zero yes
run 2000
Loop time of 50.1618 on 1 procs for 2000 steps with 2000 atoms

next i
jump SELF loop_cooling
variable i loop 1 200
variable Temp equal (260-$i)*10
variable Temp equal (260-161)*10
fix 		1 all langevin 990 990 100 29345 zero yes
run 2000
Loop time of 50.2597 on 1 procs for 2000 steps with 2000 atoms

next i
jump SELF loop_cooling
variable i loop 1 200
variable Temp equal (260-$i)*10
variable Temp equal (260-162)*10
fix 		1 all langevin 980 980 100 29345 zero yes
run 2000
Loop time of 50.0345 on 1 procs for 2000 steps with 2000 atoms

next i
jump SELF loop_cooling
variable i loop 1 200
variable Temp equal (260-$i)*10
variable Temp equal (260-163)*10
fix 		1 all langevin 970 970 100 29345 zero yes
run 2000
Loop time of 50.6517 on 1 procs for 2000 steps with 2000 atoms

next i
jump SELF loop_cooling
variable i loop 1 200
variable Temp equal (260-$i)*10
variable Temp equal (260-164)*10
fix 		1 all langevin 960 960 100 29345 zero yes
run 2000
Loop time of 50.6049 on 1 procs for 2000 steps with 2000 atoms

next i
jump SELF loop_cooling
variable i loop 1 200
variable Temp equal (260-$i)*10
variable Temp equal (260-165)*10
fix 		1 all langevin 950 950 100 29345 zero yes
run 2000
Loop time of 50.376 on 1 procs for 2000 steps with 2000 atoms

next i
jump SELF loop_cooling
variable i loop 1 200
variable Temp equal (260-$i)*10
variable Temp equal (260-166)*10
fix 		1 all langevin 940 940 100 29345 zero yes
run 2000
Loop time of 50.3549 on 1 procs for 2000 steps with 2000 atoms

next i
jump SELF loop_cooling
variable i loop 1 200
variable Temp equal (260-$i)*10
variable Temp equal (260-167)*10
fix 		1 all langevin 930 930 100 29345 zero yes
run 2000
Loop time of 50.6939 on 1 procs for 2000 steps with 2000 atoms

next i
jump SELF loop_cooling
variable i loop 1 200
variable Temp equal (260-$i)*10
variable Temp equal (260-168)*10
fix 		1 all langevin 920 920 100 29345 zero yes
run 2000
Loop time of 50.3226 on 1 procs for 2000 steps with 2000 atoms

next i
jump SELF loop_cooling
variable i loop 1 200
variable Temp equal (260-$i)*10
variable Temp equal (260-169)*10
fix 		1 all langevin 910 910 100 29345 zero yes
run 2000
Loop time of 50.5658 on 1 procs for 2000 steps with 2000 atoms

next i
jump SELF loop_cooling
variable i loop 1 200
variable Temp equal (260-$i)*10
variable Temp equal (260-170)*10
fix 		1 all langevin 900 900 100 29345 zero yes
run 2000
Loop time of 50.3394 on 1 procs for 2000 steps with 2000 atoms

next i
jump SELF loop_cooling
variable i loop 1 200
variable Temp equal (260-$i)*10
variable Temp equal (260-171)*10
fix 		1 all langevin 890 890 100 29345 zero yes
run 2000
Loop time of 50.5618 on 1 procs for 2000 steps with 2000 atoms

next i
jump SELF loop_cooling
variable i loop 1 200
variable Temp equal (260-$i)*10
variable Temp equal (260-172)*10
fix 		1 all langevin 880 880 100 29345 zero yes
run 2000
Loop time of 50.5706 on 1 procs for 2000 steps with 2000 atoms

next i
jump SELF loop_cooling
variable i loop 1 200
variable Temp equal (260-$i)*10
variable Temp equal (260-173)*10
fix 		1 all langevin 870 870 100 29345 zero yes
run 2000
Loop time of 50.6125 on 1 procs for 2000 steps with 2000 atoms

next i
jump SELF loop_cooling
variable i loop 1 200
variable Temp equal (260-$i)*10
variable Temp equal (260-174)*10
fix 		1 all langevin 860 860 100 29345 zero yes
run 2000
Loop time of 50.6642 on 1 procs for 2000 steps with 2000 atoms

next i
jump SELF loop_cooling
variable i loop 1 200
variable Temp equal (260-$i)*10
variable Temp equal (260-175)*10
fix 		1 all langevin 850 850 100 29345 zero yes
run 2000
Loop time of 50.3438 on 1 procs for 2000 steps with 2000 atoms

next i
jump SELF loop_cooling
variable i loop 1 200
variable Temp equal (260-$i)*10
variable Temp equal (260-176)*10
fix 		1 all langevin 840 840 100 29345 zero yes
run 2000
Loop time of 50.7283 on 1 procs for 2000 steps with 2000 atoms

next i
jump SELF loop_cooling
variable i loop 1 200
variable Temp equal (260-$i)*10
variable Temp equal (260-177)*10
fix 		1 all langevin 830 830 100 29345 zero yes
run 2000
Loop time of 50.6226 on 1 procs for 2000 steps with 2000 atoms

next i
jump SELF loop_cooling
variable i loop 1 200
variable Temp equal (260-$i)*10
variable Temp equal (260-178)*10
fix 		1 all langevin 820 820 100 29345 zero yes
run 2000
Loop time of 50.4857 on 1 procs for 2000 steps with 2000 atoms

next i
jump SELF loop_cooling
variable i loop 1 200
variable Temp equal (260-$i)*10
variable Temp equal (260-179)*10
fix 		1 all langevin 810 810 100 29345 zero yes
run 2000
Loop time of 50.2172 on 1 procs for 2000 steps with 2000 atoms

next i
jump SELF loop_cooling
variable i loop 1 200
variable Temp equal (260-$i)*10
variable Temp equal (260-180)*10
fix 		1 all langevin 800 800 100 29345 zero yes
run 2000
Loop time of 50.9788 on 1 procs for 2000 steps with 2000 atoms

next i
jump SELF loop_cooling
variable i loop 1 200
variable Temp equal (260-$i)*10
variable Temp equal (260-181)*10
fix 		1 all langevin 790 790 100 29345 zero yes
run 2000
Loop time of 50.7385 on 1 procs for 2000 steps with 2000 atoms

next i
jump SELF loop_cooling
variable i loop 1 200
variable Temp equal (260-$i)*10
variable Temp equal (260-182)*10
fix 		1 all langevin 780 780 100 29345 zero yes
run 2000
Loop time of 50.2614 on 1 procs for 2000 steps with 2000 atoms

next i
jump SELF loop_cooling
variable i loop 1 200
variable Temp equal (260-$i)*10
variable Temp equal (260-183)*10
fix 		1 all langevin 770 770 100 29345 zero yes
run 2000
Loop time of 50.6151 on 1 procs for 2000 steps with 2000 atoms

next i
jump SELF loop_cooling
variable i loop 1 200
variable Temp equal (260-$i)*10
variable Temp equal (260-184)*10
fix 		1 all langevin 760 760 100 29345 zero yes
run 2000
Loop time of 50.1557 on 1 procs for 2000 steps with 2000 atoms

next i
jump SELF loop_cooling
variable i loop 1 200
variable Temp equal (260-$i)*10
variable Temp equal (260-185)*10
fix 		1 all langevin 750 750 100 29345 zero yes
run 2000
Loop time of 49.9487 on 1 procs for 2000 steps with 2000 atoms

next i
jump SELF loop_cooling
variable i loop 1 200
variable Temp equal (260-$i)*10
variable Temp equal (260-186)*10
fix 		1 all langevin 740 740 100 29345 zero yes
run 2000
Loop time of 50.2059 on 1 procs for 2000 steps with 2000 atoms

next i
jump SELF loop_cooling
variable i loop 1 200
variable Temp equal (260-$i)*10
variable Temp equal (260-187)*10
fix 		1 all langevin 730 730 100 29345 zero yes
run 2000
Loop time of 50.4845 on 1 procs for 2000 steps with 2000 atoms

next i
jump SELF loop_cooling
variable i loop 1 200
variable Temp equal (260-$i)*10
variable Temp equal (260-188)*10
fix 		1 all langevin 720 720 100 29345 zero yes
run 2000
Loop time of 50.3884 on 1 procs for 2000 steps with 2000 atoms

next i
jump SELF loop_cooling
variable i loop 1 200
variable Temp equal (260-$i)*10
variable Temp equal (260-189)*10
fix 		1 all langevin 710 710 100 29345 zero yes
run 2000
Loop time of 50.3339 on 1 procs for 2000 steps with 2000 atoms

next i
jump SELF loop_cooling
variable i loop 1 200
variable Temp equal (260-$i)*10
variable Temp equal (260-190)*10
fix 		1 all langevin 700 700 100 29345 zero yes
run 2000
Loop time of 50.6961 on 1 procs for 2000 steps with 2000 atoms

next i
jump SELF loop_cooling
variable i loop 1 200
variable Temp equal (260-$i)*10
variable Temp equal (260-191)*10
fix 		1 all langevin 690 690 100 29345 zero yes
run 2000
Loop time of 50.1719 on 1 procs for 2000 steps with 2000 atoms

next i
jump SELF loop_cooling
variable i loop 1 200
variable Temp equal (260-$i)*10
variable Temp equal (260-192)*10
fix 		1 all langevin 680 680 100 29345 zero yes
run 2000
Loop time of 50.1717 on 1 procs for 2000 steps with 2000 atoms

next i
jump SELF loop_cooling
variable i loop 1 200
variable Temp equal (260-$i)*10
variable Temp equal (260-193)*10
fix 		1 all langevin 670 670 100 29345 zero yes
run 2000
Loop time of 49.9756 on 1 procs for 2000 steps with 2000 atoms

next i
jump SELF loop_cooling
variable i loop 1 200
variable Temp equal (260-$i)*10
variable Temp equal (260-194)*10
fix 		1 all langevin 660 660 100 29345 zero yes
run 2000
Loop time of 50.3058 on 1 procs for 2000 steps with 2000 atoms

next i
jump SELF loop_cooling
variable i loop 1 200
variable Temp equal (260-$i)*10
variable Temp equal (260-195)*10
fix 		1 all langevin 650 650 100 29345 zero yes
run 2000
Loop time of 50.0765 on 1 procs for 2000 steps with 2000 atoms

next i
jump SELF loop_cooling
variable i loop 1 200
variable Temp equal (260-$i)*10
variable Temp equal (260-196)*10
fix 		1 all langevin 640 640 100 29345 zero yes
run 2000
Loop time of 49.7829 on 1 procs for 2000 steps with 2000 atoms

next i
jump SELF loop_cooling
variable i loop 1 200
variable Temp equal (260-$i)*10
variable Temp equal (260-197)*10
fix 		1 all langevin 630 630 100 29345 zero yes
run 2000
Loop time of 50.2906 on 1 procs for 2000 steps with 2000 atoms

next i
jump SELF loop_cooling
variable i loop 1 200
variable Temp equal (260-$i)*10
variable Temp equal (260-198)*10
fix 		1 all langevin 620 620 100 29345 zero yes
run 2000
Loop time of 50.3712 on 1 procs for 2000 steps with 2000 atoms

next i
jump SELF loop_cooling
variable i loop 1 200
variable Temp equal (260-$i)*10
variable Temp equal (260-199)*10
fix 		1 all langevin 610 610 100 29345 zero yes
run 2000
Loop time of 50.1354 on 1 procs for 2000 steps with 2000 atoms

next i
jump SELF loop_cooling
variable i loop 1 200
variable Temp equal (260-$i)*10
variable Temp equal (260-200)*10
fix 		1 all langevin 600 600 100 29345 zero yes
run 2000
Loop time of 50.4642 on 1 procs for 2000 steps with 2000 atoms

next i
jump SELF loop_cooling
